* NGSPICE file created from LUT4AB.ext - technology: sky130A

* Black-box entry subcircuit for sky130_fd_sc_hd__decap_3 abstract view
.subckt sky130_fd_sc_hd__decap_3 VGND VNB VPB VPWR
.ends

* Black-box entry subcircuit for sky130_fd_sc_hd__dlxtp_1 abstract view
.subckt sky130_fd_sc_hd__dlxtp_1 D GATE VGND VNB VPB VPWR Q
.ends

* Black-box entry subcircuit for sky130_fd_sc_hd__tapvpwrvgnd_1 abstract view
.subckt sky130_fd_sc_hd__tapvpwrvgnd_1 VGND VPWR
.ends

* Black-box entry subcircuit for sky130_fd_sc_hd__fill_2 abstract view
.subckt sky130_fd_sc_hd__fill_2 VGND VNB VPB VPWR
.ends

* Black-box entry subcircuit for sky130_fd_sc_hd__fill_1 abstract view
.subckt sky130_fd_sc_hd__fill_1 VGND VNB VPB VPWR
.ends

* Black-box entry subcircuit for sky130_fd_sc_hd__mux4_1 abstract view
.subckt sky130_fd_sc_hd__mux4_1 A0 A1 A2 A3 S0 S1 VGND VNB VPB VPWR X
.ends

* Black-box entry subcircuit for sky130_fd_sc_hd__mux2_1 abstract view
.subckt sky130_fd_sc_hd__mux2_1 A0 A1 S VGND VNB VPB VPWR X
.ends

* Black-box entry subcircuit for sky130_fd_sc_hd__and2b_1 abstract view
.subckt sky130_fd_sc_hd__and2b_1 A_N B VGND VNB VPB VPWR X
.ends

* Black-box entry subcircuit for sky130_fd_sc_hd__a211oi_1 abstract view
.subckt sky130_fd_sc_hd__a211oi_1 A1 A2 B1 C1 VGND VNB VPB VPWR Y
.ends

* Black-box entry subcircuit for sky130_fd_sc_hd__buf_2 abstract view
.subckt sky130_fd_sc_hd__buf_2 A VGND VNB VPB VPWR X
.ends

* Black-box entry subcircuit for sky130_fd_sc_hd__clkbuf_2 abstract view
.subckt sky130_fd_sc_hd__clkbuf_2 A VGND VNB VPB VPWR X
.ends

* Black-box entry subcircuit for sky130_fd_sc_hd__nand2b_1 abstract view
.subckt sky130_fd_sc_hd__nand2b_1 A_N B VGND VNB VPB VPWR Y
.ends

* Black-box entry subcircuit for sky130_fd_sc_hd__o221a_1 abstract view
.subckt sky130_fd_sc_hd__o221a_1 A1 A2 B1 B2 C1 VGND VNB VPB VPWR X
.ends

* Black-box entry subcircuit for sky130_fd_sc_hd__o21ba_4 abstract view
.subckt sky130_fd_sc_hd__o21ba_4 A1 A2 B1_N VGND VNB VPB VPWR X
.ends

* Black-box entry subcircuit for sky130_fd_sc_hd__or2_1 abstract view
.subckt sky130_fd_sc_hd__or2_1 A B VGND VNB VPB VPWR X
.ends

* Black-box entry subcircuit for sky130_fd_sc_hd__buf_6 abstract view
.subckt sky130_fd_sc_hd__buf_6 A VGND VNB VPB VPWR X
.ends

* Black-box entry subcircuit for sky130_fd_sc_hd__buf_4 abstract view
.subckt sky130_fd_sc_hd__buf_4 A VGND VNB VPB VPWR X
.ends

* Black-box entry subcircuit for sky130_fd_sc_hd__buf_8 abstract view
.subckt sky130_fd_sc_hd__buf_8 A VGND VNB VPB VPWR X
.ends

* Black-box entry subcircuit for sky130_fd_sc_hd__o21ba_1 abstract view
.subckt sky130_fd_sc_hd__o21ba_1 A1 A2 B1_N VGND VNB VPB VPWR X
.ends

* Black-box entry subcircuit for sky130_fd_sc_hd__nand2_1 abstract view
.subckt sky130_fd_sc_hd__nand2_1 A B VGND VNB VPB VPWR Y
.ends

* Black-box entry subcircuit for sky130_fd_sc_hd__mux4_2 abstract view
.subckt sky130_fd_sc_hd__mux4_2 A0 A1 A2 A3 S0 S1 VGND VNB VPB VPWR X
.ends

* Black-box entry subcircuit for sky130_fd_sc_hd__buf_1 abstract view
.subckt sky130_fd_sc_hd__buf_1 A VGND VNB VPB VPWR X
.ends

* Black-box entry subcircuit for sky130_fd_sc_hd__a21oi_4 abstract view
.subckt sky130_fd_sc_hd__a21oi_4 A1 A2 B1 VGND VNB VPB VPWR Y
.ends

* Black-box entry subcircuit for sky130_fd_sc_hd__clkbuf_1 abstract view
.subckt sky130_fd_sc_hd__clkbuf_1 A VGND VNB VPB VPWR X
.ends

* Black-box entry subcircuit for sky130_fd_sc_hd__dlygate4sd1_1 abstract view
.subckt sky130_fd_sc_hd__dlygate4sd1_1 A VGND VNB VPB VPWR X
.ends

* Black-box entry subcircuit for sky130_fd_sc_hd__inv_1 abstract view
.subckt sky130_fd_sc_hd__inv_1 A VGND VNB VPB VPWR Y
.ends

* Black-box entry subcircuit for sky130_fd_sc_hd__nor2_1 abstract view
.subckt sky130_fd_sc_hd__nor2_1 A B VGND VNB VPB VPWR Y
.ends

* Black-box entry subcircuit for sky130_fd_sc_hd__clkbuf_4 abstract view
.subckt sky130_fd_sc_hd__clkbuf_4 A VGND VNB VPB VPWR X
.ends

* Black-box entry subcircuit for sky130_fd_sc_hd__a21bo_1 abstract view
.subckt sky130_fd_sc_hd__a21bo_1 A1 A2 B1_N VGND VNB VPB VPWR X
.ends

* Black-box entry subcircuit for sky130_fd_sc_hd__o211a_1 abstract view
.subckt sky130_fd_sc_hd__o211a_1 A1 A2 B1 C1 VGND VNB VPB VPWR X
.ends

* Black-box entry subcircuit for sky130_fd_sc_hd__inv_2 abstract view
.subckt sky130_fd_sc_hd__inv_2 A VGND VNB VPB VPWR Y
.ends

* Black-box entry subcircuit for sky130_fd_sc_hd__a22o_1 abstract view
.subckt sky130_fd_sc_hd__a22o_1 A1 A2 B1 B2 VGND VNB VPB VPWR X
.ends

* Black-box entry subcircuit for sky130_fd_sc_hd__o22a_1 abstract view
.subckt sky130_fd_sc_hd__o22a_1 A1 A2 B1 B2 VGND VNB VPB VPWR X
.ends

* Black-box entry subcircuit for sky130_fd_sc_hd__mux2_4 abstract view
.subckt sky130_fd_sc_hd__mux2_4 A0 A1 S VGND VNB VPB VPWR X
.ends

* Black-box entry subcircuit for sky130_fd_sc_hd__dlymetal6s2s_1 abstract view
.subckt sky130_fd_sc_hd__dlymetal6s2s_1 A VGND VNB VPB VPWR X
.ends

* Black-box entry subcircuit for sky130_fd_sc_hd__nand2_2 abstract view
.subckt sky130_fd_sc_hd__nand2_2 A B VGND VNB VPB VPWR Y
.ends

* Black-box entry subcircuit for sky130_fd_sc_hd__dlygate4sd3_1 abstract view
.subckt sky130_fd_sc_hd__dlygate4sd3_1 A VGND VNB VPB VPWR X
.ends

* Black-box entry subcircuit for sky130_fd_sc_hd__a32o_1 abstract view
.subckt sky130_fd_sc_hd__a32o_1 A1 A2 A3 B1 B2 VGND VNB VPB VPWR X
.ends

* Black-box entry subcircuit for sky130_fd_sc_hd__inv_4 abstract view
.subckt sky130_fd_sc_hd__inv_4 A VGND VNB VPB VPWR Y
.ends

* Black-box entry subcircuit for sky130_fd_sc_hd__o2bb2a_1 abstract view
.subckt sky130_fd_sc_hd__o2bb2a_1 A1_N A2_N B1 B2 VGND VNB VPB VPWR X
.ends

* Black-box entry subcircuit for sky130_fd_sc_hd__nand2b_4 abstract view
.subckt sky130_fd_sc_hd__nand2b_4 A_N B VGND VNB VPB VPWR Y
.ends

* Black-box entry subcircuit for sky130_fd_sc_hd__a31o_1 abstract view
.subckt sky130_fd_sc_hd__a31o_1 A1 A2 A3 B1 VGND VNB VPB VPWR X
.ends

* Black-box entry subcircuit for sky130_fd_sc_hd__a2bb2o_4 abstract view
.subckt sky130_fd_sc_hd__a2bb2o_4 A1_N A2_N B1 B2 VGND VNB VPB VPWR X
.ends

* Black-box entry subcircuit for sky130_fd_sc_hd__a22o_4 abstract view
.subckt sky130_fd_sc_hd__a22o_4 A1 A2 B1 B2 VGND VNB VPB VPWR X
.ends

* Black-box entry subcircuit for sky130_fd_sc_hd__o211ai_1 abstract view
.subckt sky130_fd_sc_hd__o211ai_1 A1 A2 B1 C1 VGND VNB VPB VPWR Y
.ends

* Black-box entry subcircuit for sky130_fd_sc_hd__a21bo_4 abstract view
.subckt sky130_fd_sc_hd__a21bo_4 A1 A2 B1_N VGND VNB VPB VPWR X
.ends

* Black-box entry subcircuit for sky130_fd_sc_hd__o22a_4 abstract view
.subckt sky130_fd_sc_hd__o22a_4 A1 A2 B1 B2 VGND VNB VPB VPWR X
.ends

* Black-box entry subcircuit for sky130_fd_sc_hd__a21oi_1 abstract view
.subckt sky130_fd_sc_hd__a21oi_1 A1 A2 B1 VGND VNB VPB VPWR Y
.ends

* Black-box entry subcircuit for sky130_fd_sc_hd__buf_12 abstract view
.subckt sky130_fd_sc_hd__buf_12 A VGND VNB VPB VPWR X
.ends

* Black-box entry subcircuit for sky130_fd_sc_hd__and3_1 abstract view
.subckt sky130_fd_sc_hd__and3_1 A B C VGND VNB VPB VPWR X
.ends

* Black-box entry subcircuit for sky130_fd_sc_hd__a311o_1 abstract view
.subckt sky130_fd_sc_hd__a311o_1 A1 A2 A3 B1 C1 VGND VNB VPB VPWR X
.ends

* Black-box entry subcircuit for sky130_fd_sc_hd__a21boi_2 abstract view
.subckt sky130_fd_sc_hd__a21boi_2 A1 A2 B1_N VGND VNB VPB VPWR Y
.ends

* Black-box entry subcircuit for sky130_fd_sc_hd__a211o_1 abstract view
.subckt sky130_fd_sc_hd__a211o_1 A1 A2 B1 C1 VGND VNB VPB VPWR X
.ends

* Black-box entry subcircuit for sky130_fd_sc_hd__or2_4 abstract view
.subckt sky130_fd_sc_hd__or2_4 A B VGND VNB VPB VPWR X
.ends

* Black-box entry subcircuit for sky130_fd_sc_hd__inv_6 abstract view
.subckt sky130_fd_sc_hd__inv_6 A VGND VNB VPB VPWR Y
.ends

* Black-box entry subcircuit for sky130_fd_sc_hd__o21a_1 abstract view
.subckt sky130_fd_sc_hd__o21a_1 A1 A2 B1 VGND VNB VPB VPWR X
.ends

* Black-box entry subcircuit for sky130_fd_sc_hd__a221o_1 abstract view
.subckt sky130_fd_sc_hd__a221o_1 A1 A2 B1 B2 C1 VGND VNB VPB VPWR X
.ends

* Black-box entry subcircuit for sky130_fd_sc_hd__a21o_1 abstract view
.subckt sky130_fd_sc_hd__a21o_1 A1 A2 B1 VGND VNB VPB VPWR X
.ends

* Black-box entry subcircuit for sky130_fd_sc_hd__clkbuf_16 abstract view
.subckt sky130_fd_sc_hd__clkbuf_16 A VGND VNB VPB VPWR X
.ends

* Black-box entry subcircuit for sky130_fd_sc_hd__a31oi_4 abstract view
.subckt sky130_fd_sc_hd__a31oi_4 A1 A2 A3 B1 VGND VNB VPB VPWR Y
.ends

* Black-box entry subcircuit for sky130_fd_sc_hd__and2_1 abstract view
.subckt sky130_fd_sc_hd__and2_1 A B VGND VNB VPB VPWR X
.ends

* Black-box entry subcircuit for sky130_fd_sc_hd__mux2_2 abstract view
.subckt sky130_fd_sc_hd__mux2_2 A0 A1 S VGND VNB VPB VPWR X
.ends

* Black-box entry subcircuit for sky130_fd_sc_hd__or2_2 abstract view
.subckt sky130_fd_sc_hd__or2_2 A B VGND VNB VPB VPWR X
.ends

* Black-box entry subcircuit for sky130_fd_sc_hd__dfxtp_1 abstract view
.subckt sky130_fd_sc_hd__dfxtp_1 CLK D VGND VNB VPB VPWR Q
.ends

* Black-box entry subcircuit for sky130_fd_sc_hd__nand2_4 abstract view
.subckt sky130_fd_sc_hd__nand2_4 A B VGND VNB VPB VPWR Y
.ends

* Black-box entry subcircuit for sky130_fd_sc_hd__nand2_8 abstract view
.subckt sky130_fd_sc_hd__nand2_8 A B VGND VNB VPB VPWR Y
.ends

* Black-box entry subcircuit for sky130_fd_sc_hd__o21a_4 abstract view
.subckt sky130_fd_sc_hd__o21a_4 A1 A2 B1 VGND VNB VPB VPWR X
.ends

* Black-box entry subcircuit for sky130_fd_sc_hd__clkbuf_8 abstract view
.subckt sky130_fd_sc_hd__clkbuf_8 A VGND VNB VPB VPWR X
.ends

* Black-box entry subcircuit for sky130_fd_sc_hd__o211ai_2 abstract view
.subckt sky130_fd_sc_hd__o211ai_2 A1 A2 B1 C1 VGND VNB VPB VPWR Y
.ends

* Black-box entry subcircuit for sky130_fd_sc_hd__o22ai_4 abstract view
.subckt sky130_fd_sc_hd__o22ai_4 A1 A2 B1 B2 VGND VNB VPB VPWR Y
.ends

* Black-box entry subcircuit for sky130_fd_sc_hd__a31o_4 abstract view
.subckt sky130_fd_sc_hd__a31o_4 A1 A2 A3 B1 VGND VNB VPB VPWR X
.ends

* Black-box entry subcircuit for sky130_fd_sc_hd__a211oi_4 abstract view
.subckt sky130_fd_sc_hd__a211oi_4 A1 A2 B1 C1 VGND VNB VPB VPWR Y
.ends

* Black-box entry subcircuit for sky130_fd_sc_hd__o21ai_1 abstract view
.subckt sky130_fd_sc_hd__o21ai_1 A1 A2 B1 VGND VNB VPB VPWR Y
.ends

* Black-box entry subcircuit for sky130_fd_sc_hd__o21ai_4 abstract view
.subckt sky130_fd_sc_hd__o21ai_4 A1 A2 B1 VGND VNB VPB VPWR Y
.ends

* Black-box entry subcircuit for sky130_fd_sc_hd__or3b_1 abstract view
.subckt sky130_fd_sc_hd__or3b_1 A B C_N VGND VNB VPB VPWR X
.ends

* Black-box entry subcircuit for sky130_fd_sc_hd__o2bb2a_4 abstract view
.subckt sky130_fd_sc_hd__o2bb2a_4 A1_N A2_N B1 B2 VGND VNB VPB VPWR X
.ends

* Black-box entry subcircuit for sky130_fd_sc_hd__o22a_2 abstract view
.subckt sky130_fd_sc_hd__o22a_2 A1 A2 B1 B2 VGND VNB VPB VPWR X
.ends

.subckt LUT4AB Ci Co E1BEG[0] E1BEG[1] E1BEG[2] E1BEG[3] E1END[0] E1END[1] E1END[2]
+ E1END[3] E2BEG[0] E2BEG[1] E2BEG[2] E2BEG[3] E2BEG[4] E2BEG[5] E2BEG[6] E2BEG[7]
+ E2BEGb[0] E2BEGb[1] E2BEGb[2] E2BEGb[3] E2BEGb[4] E2BEGb[5] E2BEGb[6] E2BEGb[7]
+ E2END[0] E2END[1] E2END[2] E2END[3] E2END[4] E2END[5] E2END[6] E2END[7] E2MID[0]
+ E2MID[1] E2MID[2] E2MID[3] E2MID[4] E2MID[5] E2MID[6] E2MID[7] E6BEG[0] E6BEG[10]
+ E6BEG[11] E6BEG[1] E6BEG[2] E6BEG[3] E6BEG[4] E6BEG[5] E6BEG[6] E6BEG[7] E6BEG[8]
+ E6BEG[9] E6END[0] E6END[10] E6END[11] E6END[1] E6END[2] E6END[3] E6END[4] E6END[5]
+ E6END[6] E6END[7] E6END[8] E6END[9] EE4BEG[0] EE4BEG[10] EE4BEG[11] EE4BEG[12] EE4BEG[13]
+ EE4BEG[14] EE4BEG[15] EE4BEG[1] EE4BEG[2] EE4BEG[3] EE4BEG[4] EE4BEG[5] EE4BEG[6]
+ EE4BEG[7] EE4BEG[8] EE4BEG[9] EE4END[0] EE4END[10] EE4END[11] EE4END[12] EE4END[13]
+ EE4END[14] EE4END[15] EE4END[1] EE4END[2] EE4END[3] EE4END[4] EE4END[5] EE4END[6]
+ EE4END[7] EE4END[8] EE4END[9] FrameData[0] FrameData[10] FrameData[11] FrameData[12]
+ FrameData[13] FrameData[14] FrameData[15] FrameData[16] FrameData[17] FrameData[18]
+ FrameData[19] FrameData[1] FrameData[20] FrameData[21] FrameData[22] FrameData[23]
+ FrameData[24] FrameData[25] FrameData[26] FrameData[27] FrameData[28] FrameData[29]
+ FrameData[2] FrameData[30] FrameData[31] FrameData[3] FrameData[4] FrameData[5]
+ FrameData[6] FrameData[7] FrameData[8] FrameData[9] FrameData_O[0] FrameData_O[10]
+ FrameData_O[11] FrameData_O[12] FrameData_O[13] FrameData_O[14] FrameData_O[15]
+ FrameData_O[16] FrameData_O[17] FrameData_O[18] FrameData_O[19] FrameData_O[1] FrameData_O[20]
+ FrameData_O[21] FrameData_O[22] FrameData_O[23] FrameData_O[24] FrameData_O[25]
+ FrameData_O[26] FrameData_O[27] FrameData_O[28] FrameData_O[29] FrameData_O[2] FrameData_O[30]
+ FrameData_O[31] FrameData_O[3] FrameData_O[4] FrameData_O[5] FrameData_O[6] FrameData_O[7]
+ FrameData_O[8] FrameData_O[9] FrameStrobe[0] FrameStrobe[10] FrameStrobe[11] FrameStrobe[12]
+ FrameStrobe[13] FrameStrobe[14] FrameStrobe[15] FrameStrobe[16] FrameStrobe[17]
+ FrameStrobe[18] FrameStrobe[19] FrameStrobe[1] FrameStrobe[2] FrameStrobe[3] FrameStrobe[4]
+ FrameStrobe[5] FrameStrobe[6] FrameStrobe[7] FrameStrobe[8] FrameStrobe[9] FrameStrobe_O[0]
+ FrameStrobe_O[10] FrameStrobe_O[11] FrameStrobe_O[12] FrameStrobe_O[13] FrameStrobe_O[14]
+ FrameStrobe_O[15] FrameStrobe_O[16] FrameStrobe_O[17] FrameStrobe_O[18] FrameStrobe_O[19]
+ FrameStrobe_O[1] FrameStrobe_O[2] FrameStrobe_O[3] FrameStrobe_O[4] FrameStrobe_O[5]
+ FrameStrobe_O[6] FrameStrobe_O[7] FrameStrobe_O[8] FrameStrobe_O[9] N1BEG[0] N1BEG[1]
+ N1BEG[2] N1BEG[3] N1END[0] N1END[1] N1END[2] N1END[3] N2BEG[0] N2BEG[1] N2BEG[2]
+ N2BEG[3] N2BEG[4] N2BEG[5] N2BEG[6] N2BEG[7] N2BEGb[0] N2BEGb[1] N2BEGb[2] N2BEGb[3]
+ N2BEGb[4] N2BEGb[5] N2BEGb[6] N2BEGb[7] N2END[0] N2END[1] N2END[2] N2END[3] N2END[4]
+ N2END[5] N2END[6] N2END[7] N2MID[0] N2MID[1] N2MID[2] N2MID[3] N2MID[4] N2MID[5]
+ N2MID[6] N2MID[7] N4BEG[0] N4BEG[10] N4BEG[11] N4BEG[12] N4BEG[13] N4BEG[14] N4BEG[15]
+ N4BEG[1] N4BEG[2] N4BEG[3] N4BEG[4] N4BEG[5] N4BEG[6] N4BEG[7] N4BEG[8] N4BEG[9]
+ N4END[0] N4END[10] N4END[11] N4END[12] N4END[13] N4END[14] N4END[15] N4END[1] N4END[2]
+ N4END[3] N4END[4] N4END[5] N4END[6] N4END[7] N4END[8] N4END[9] NN4BEG[0] NN4BEG[10]
+ NN4BEG[11] NN4BEG[12] NN4BEG[13] NN4BEG[14] NN4BEG[15] NN4BEG[1] NN4BEG[2] NN4BEG[3]
+ NN4BEG[4] NN4BEG[5] NN4BEG[6] NN4BEG[7] NN4BEG[8] NN4BEG[9] NN4END[0] NN4END[10]
+ NN4END[11] NN4END[12] NN4END[13] NN4END[14] NN4END[15] NN4END[1] NN4END[2] NN4END[3]
+ NN4END[4] NN4END[5] NN4END[6] NN4END[7] NN4END[8] NN4END[9] S1BEG[0] S1BEG[1] S1BEG[2]
+ S1BEG[3] S1END[0] S1END[1] S1END[2] S1END[3] S2BEG[0] S2BEG[1] S2BEG[2] S2BEG[3]
+ S2BEG[4] S2BEG[5] S2BEG[6] S2BEG[7] S2BEGb[0] S2BEGb[1] S2BEGb[2] S2BEGb[3] S2BEGb[4]
+ S2BEGb[5] S2BEGb[6] S2BEGb[7] S2END[0] S2END[1] S2END[2] S2END[3] S2END[4] S2END[5]
+ S2END[6] S2END[7] S2MID[0] S2MID[1] S2MID[2] S2MID[3] S2MID[4] S2MID[5] S2MID[6]
+ S2MID[7] S4BEG[0] S4BEG[10] S4BEG[11] S4BEG[12] S4BEG[13] S4BEG[14] S4BEG[15] S4BEG[1]
+ S4BEG[2] S4BEG[3] S4BEG[4] S4BEG[5] S4BEG[6] S4BEG[7] S4BEG[8] S4BEG[9] S4END[0]
+ S4END[10] S4END[11] S4END[12] S4END[13] S4END[14] S4END[15] S4END[1] S4END[2] S4END[3]
+ S4END[4] S4END[5] S4END[6] S4END[7] S4END[8] S4END[9] SS4BEG[0] SS4BEG[10] SS4BEG[11]
+ SS4BEG[12] SS4BEG[13] SS4BEG[14] SS4BEG[15] SS4BEG[1] SS4BEG[2] SS4BEG[3] SS4BEG[4]
+ SS4BEG[5] SS4BEG[6] SS4BEG[7] SS4BEG[8] SS4BEG[9] SS4END[0] SS4END[10] SS4END[11]
+ SS4END[12] SS4END[13] SS4END[14] SS4END[15] SS4END[1] SS4END[2] SS4END[3] SS4END[4]
+ SS4END[5] SS4END[6] SS4END[7] SS4END[8] SS4END[9] UserCLK UserCLKo VGND VPWR W1BEG[0]
+ W1BEG[1] W1BEG[2] W1BEG[3] W1END[0] W1END[1] W1END[2] W1END[3] W2BEG[0] W2BEG[1]
+ W2BEG[2] W2BEG[3] W2BEG[4] W2BEG[5] W2BEG[6] W2BEG[7] W2BEGb[0] W2BEGb[1] W2BEGb[2]
+ W2BEGb[3] W2BEGb[4] W2BEGb[5] W2BEGb[6] W2BEGb[7] W2END[0] W2END[1] W2END[2] W2END[3]
+ W2END[4] W2END[5] W2END[6] W2END[7] W2MID[0] W2MID[1] W2MID[2] W2MID[3] W2MID[4]
+ W2MID[5] W2MID[6] W2MID[7] W6BEG[0] W6BEG[10] W6BEG[11] W6BEG[1] W6BEG[2] W6BEG[3]
+ W6BEG[4] W6BEG[5] W6BEG[6] W6BEG[7] W6BEG[8] W6BEG[9] W6END[0] W6END[10] W6END[11]
+ W6END[1] W6END[2] W6END[3] W6END[4] W6END[5] W6END[6] W6END[7] W6END[8] W6END[9]
+ WW4BEG[0] WW4BEG[10] WW4BEG[11] WW4BEG[12] WW4BEG[13] WW4BEG[14] WW4BEG[15] WW4BEG[1]
+ WW4BEG[2] WW4BEG[3] WW4BEG[4] WW4BEG[5] WW4BEG[6] WW4BEG[7] WW4BEG[8] WW4BEG[9]
+ WW4END[0] WW4END[10] WW4END[11] WW4END[12] WW4END[13] WW4END[14] WW4END[15] WW4END[1]
+ WW4END[2] WW4END[3] WW4END[4] WW4END[5] WW4END[6] WW4END[7] WW4END[8] WW4END[9]
XFILLER_39_211 VGND VGND VPWR VPWR sky130_fd_sc_hd__decap_3
XFILLER_39_299 VGND VGND VPWR VPWR sky130_fd_sc_hd__decap_3
X_2106_ net799 net739 VGND VGND VPWR VPWR Inst_LUT4AB_ConfigMem.Inst_frame0_bit11.Q
+ sky130_fd_sc_hd__dlxtp_1
XFILLER_54_236 VGND VGND VPWR VPWR sky130_fd_sc_hd__decap_3
X_2037_ net746 net691 VGND VGND VPWR VPWR Inst_LUT4AB_ConfigMem.Inst_frame2_bit6.Q
+ sky130_fd_sc_hd__dlxtp_1
XTAP_TAPCELL_ROW_20_301 VGND VPWR sky130_fd_sc_hd__tapvpwrvgnd_1
XFILLER_45_258 VGND VGND VPWR VPWR sky130_fd_sc_hd__decap_3
XFILLER_13_100 VGND VGND VPWR VPWR sky130_fd_sc_hd__decap_3
XFILLER_26_85 VGND VGND VPWR VPWR sky130_fd_sc_hd__decap_3
XTAP_TAPCELL_ROW_43_459 VGND VPWR sky130_fd_sc_hd__tapvpwrvgnd_1
XFILLER_13_166 VGND VGND VPWR VPWR sky130_fd_sc_hd__fill_2
XFILLER_3_34 VGND VGND VPWR VPWR sky130_fd_sc_hd__fill_1
XFILLER_68_306 VGND VGND VPWR VPWR sky130_fd_sc_hd__fill_2
X_1270_ net633 net628 net619 Inst_LUT4AB_switch_matrix.M_AD Inst_LUT4AB_ConfigMem.Inst_frame2_bit26.Q
+ Inst_LUT4AB_ConfigMem.Inst_frame2_bit27.Q VGND VGND VPWR VPWR _0379_ sky130_fd_sc_hd__mux4_1
XTAP_TAPCELL_ROW_59_570 VGND VPWR sky130_fd_sc_hd__tapvpwrvgnd_1
XFILLER_51_228 VGND VGND VPWR VPWR sky130_fd_sc_hd__decap_3
X_0985_ _0115_ _0116_ Inst_LUT4AB_ConfigMem.Inst_frame1_bit16.Q VGND VGND VPWR VPWR
+ _0117_ sky130_fd_sc_hd__mux2_1
X_1606_ net773 net711 VGND VGND VPWR VPWR Inst_LF_LUT4c_frame_config_dffesr.inst_cus_mux161_buf.A0
+ sky130_fd_sc_hd__dlxtp_1
X_1537_ net784 net700 VGND VGND VPWR VPWR Inst_LB_LUT4c_frame_config_dffesr.inst_cus_mux161_buf.A7
+ sky130_fd_sc_hd__dlxtp_1
XFILLER_59_328 VGND VGND VPWR VPWR sky130_fd_sc_hd__decap_3
X_1468_ Inst_LUT4AB_ConfigMem.Inst_frame0_bit31.Q _0527_ VGND VGND VPWR VPWR _0528_
+ sky130_fd_sc_hd__and2b_1
XFILLER_47_18 VGND VGND VPWR VPWR sky130_fd_sc_hd__decap_3
X_1399_ Inst_LUT4AB_ConfigMem.Inst_frame13_bit25.Q _0638_ _0489_ Inst_LUT4AB_ConfigMem.Inst_frame13_bit26.Q
+ VGND VGND VPWR VPWR _0490_ sky130_fd_sc_hd__a211oi_1
XFILLER_27_225 VGND VGND VPWR VPWR sky130_fd_sc_hd__decap_3
XFILLER_10_125 VGND VGND VPWR VPWR sky130_fd_sc_hd__decap_3
XFILLER_10_103 VGND VGND VPWR VPWR sky130_fd_sc_hd__fill_1
XFILLER_10_169 VGND VGND VPWR VPWR sky130_fd_sc_hd__decap_3
XFILLER_12_98 VGND VGND VPWR VPWR sky130_fd_sc_hd__decap_3
XFILLER_2_313 VGND VGND VPWR VPWR sky130_fd_sc_hd__fill_1
Xfanout650 net651 VGND VGND VPWR VPWR net650 sky130_fd_sc_hd__buf_2
Xfanout683 net686 VGND VGND VPWR VPWR net683 sky130_fd_sc_hd__clkbuf_2
Xfanout661 net58 VGND VGND VPWR VPWR net661 sky130_fd_sc_hd__buf_2
Xfanout694 FrameStrobe[2] VGND VGND VPWR VPWR net694 sky130_fd_sc_hd__clkbuf_2
Xfanout672 net673 VGND VGND VPWR VPWR net672 sky130_fd_sc_hd__clkbuf_2
XTAP_TAPCELL_ROW_5_195 VGND VPWR sky130_fd_sc_hd__tapvpwrvgnd_1
XFILLER_58_361 VGND VGND VPWR VPWR sky130_fd_sc_hd__decap_3
XFILLER_58_383 VGND VGND VPWR VPWR sky130_fd_sc_hd__fill_1
XTAP_TAPCELL_ROW_56_551 VGND VPWR sky130_fd_sc_hd__tapvpwrvgnd_1
XFILLER_26_291 VGND VGND VPWR VPWR sky130_fd_sc_hd__decap_3
XFILLER_41_250 VGND VGND VPWR VPWR sky130_fd_sc_hd__decap_3
X_0770_ Inst_LUT4AB_ConfigMem.Inst_frame4_bit0.Q _0618_ VGND VGND VPWR VPWR _0619_
+ sky130_fd_sc_hd__nand2b_1
XFILLER_5_140 VGND VGND VPWR VPWR sky130_fd_sc_hd__fill_1
XFILLER_5_151 VGND VGND VPWR VPWR sky130_fd_sc_hd__decap_3
XFILLER_68_103 VGND VGND VPWR VPWR sky130_fd_sc_hd__decap_3
X_1322_ Inst_LUT4AB_ConfigMem.Inst_frame11_bit28.Q _0421_ _0423_ _0425_ Inst_LUT4AB_ConfigMem.Inst_frame11_bit29.Q
+ VGND VGND VPWR VPWR _0426_ sky130_fd_sc_hd__o221a_1
X_1253_ net87 net89 net91 net115 Inst_LUT4AB_ConfigMem.Inst_frame1_bit22.Q Inst_LUT4AB_ConfigMem.Inst_frame1_bit23.Q
+ VGND VGND VPWR VPWR _0365_ sky130_fd_sc_hd__mux4_1
XFILLER_64_320 VGND VGND VPWR VPWR sky130_fd_sc_hd__fill_2
X_1184_ Inst_LH_LUT4c_frame_config_dffesr.LUT_flop _0574_ _0302_ VGND VGND VPWR VPWR
+ H sky130_fd_sc_hd__o21ba_4
XPHY_EDGE_ROW_20_Left_94 VGND VGND VPWR VPWR sky130_fd_sc_hd__decap_3
XFILLER_24_206 VGND VGND VPWR VPWR sky130_fd_sc_hd__decap_3
X_0968_ _0086_ _0099_ VGND VGND VPWR VPWR _0100_ sky130_fd_sc_hd__or2_1
X_0899_ net86 net3 net9 net23 Inst_LUT4AB_ConfigMem.Inst_frame2_bit2.Q Inst_LUT4AB_ConfigMem.Inst_frame2_bit3.Q
+ VGND VGND VPWR VPWR _0036_ sky130_fd_sc_hd__mux4_1
Xoutput231 net231 VGND VGND VPWR VPWR FrameStrobe_O[18] sky130_fd_sc_hd__buf_2
Xoutput220 net220 VGND VGND VPWR VPWR FrameData_O[8] sky130_fd_sc_hd__buf_2
Xoutput253 Inst_LUT4AB_switch_matrix.JN2BEG7 VGND VGND VPWR VPWR N2BEG[7] sky130_fd_sc_hd__buf_6
Xoutput242 net242 VGND VGND VPWR VPWR N1BEG[0] sky130_fd_sc_hd__buf_4
Xoutput286 net286 VGND VGND VPWR VPWR NN4BEG[2] sky130_fd_sc_hd__buf_2
Xoutput275 net275 VGND VGND VPWR VPWR N4BEG[7] sky130_fd_sc_hd__buf_2
Xoutput264 net264 VGND VGND VPWR VPWR N4BEG[11] sky130_fd_sc_hd__buf_2
Xoutput297 Inst_LUT4AB_switch_matrix.S1BEG3 VGND VGND VPWR VPWR S1BEG[3] sky130_fd_sc_hd__buf_8
XFILLER_59_125 VGND VGND VPWR VPWR sky130_fd_sc_hd__fill_2
XFILLER_55_320 VGND VGND VPWR VPWR sky130_fd_sc_hd__decap_3
XTAP_TAPCELL_ROW_53_532 VGND VPWR sky130_fd_sc_hd__tapvpwrvgnd_1
XFILLER_23_261 VGND VGND VPWR VPWR sky130_fd_sc_hd__decap_3
XFILLER_38_309 VGND VGND VPWR VPWR sky130_fd_sc_hd__fill_2
XFILLER_65_106 VGND VGND VPWR VPWR sky130_fd_sc_hd__decap_3
XFILLER_61_301 VGND VGND VPWR VPWR sky130_fd_sc_hd__decap_3
XTAP_TAPCELL_ROW_16_267 VGND VPWR sky130_fd_sc_hd__tapvpwrvgnd_1
XFILLER_14_283 VGND VGND VPWR VPWR sky130_fd_sc_hd__decap_3
XFILLER_9_33 VGND VGND VPWR VPWR sky130_fd_sc_hd__fill_2
X_1940_ net748 net680 VGND VGND VPWR VPWR Inst_LUT4AB_ConfigMem.Inst_frame5_bit5.Q
+ sky130_fd_sc_hd__dlxtp_1
X_1871_ net802 net669 VGND VGND VPWR VPWR Inst_LUT4AB_ConfigMem.Inst_frame7_bit0.Q
+ sky130_fd_sc_hd__dlxtp_1
X_0822_ net95 net123 net107 net139 Inst_LUT4AB_ConfigMem.Inst_frame1_bit7.Q Inst_LUT4AB_ConfigMem.Inst_frame1_bit6.Q
+ VGND VGND VPWR VPWR _0667_ sky130_fd_sc_hd__mux4_1
X_0753_ net26 net109 net126 Inst_LUT4AB_switch_matrix.E2BEG1 Inst_LUT4AB_ConfigMem.Inst_frame1_bit28.Q
+ Inst_LUT4AB_ConfigMem.Inst_frame1_bit29.Q VGND VGND VPWR VPWR _0603_ sky130_fd_sc_hd__mux4_1
XFILLER_50_3 VGND VGND VPWR VPWR sky130_fd_sc_hd__decap_3
X_2354_ net129 VGND VGND VPWR VPWR net361 sky130_fd_sc_hd__buf_2
X_1305_ net807 Inst_LUT4AB_ConfigMem.Inst_frame11_bit30.Q Inst_LUT4AB_ConfigMem.Inst_frame11_bit31.Q
+ VGND VGND VPWR VPWR _0410_ sky130_fd_sc_hd__o21ba_1
X_2285_ Inst_LUT4AB_switch_matrix.NN4BEG2 VGND VGND VPWR VPWR net283 sky130_fd_sc_hd__buf_4
XTAP_TAPCELL_ROW_67_624 VGND VPWR sky130_fd_sc_hd__tapvpwrvgnd_1
X_1236_ Inst_LUT4AB_ConfigMem.Inst_frame4_bit24.Q _0349_ VGND VGND VPWR VPWR _0350_
+ sky130_fd_sc_hd__and2b_1
X_1167_ _0281_ _0282_ VGND VGND VPWR VPWR _0286_ sky130_fd_sc_hd__nand2_1
XFILLER_37_386 VGND VGND VPWR VPWR sky130_fd_sc_hd__decap_3
XFILLER_64_194 VGND VGND VPWR VPWR sky130_fd_sc_hd__fill_2
X_1098_ net77 net105 net20 Inst_LUT4AB_switch_matrix.JN2BEG6 Inst_LUT4AB_ConfigMem.Inst_frame7_bit19.Q
+ Inst_LUT4AB_ConfigMem.Inst_frame7_bit18.Q VGND VGND VPWR VPWR _0221_ sky130_fd_sc_hd__mux4_2
XFILLER_20_220 VGND VGND VPWR VPWR sky130_fd_sc_hd__decap_3
XFILLER_20_253 VGND VGND VPWR VPWR sky130_fd_sc_hd__decap_3
XFILLER_18_53 VGND VGND VPWR VPWR sky130_fd_sc_hd__decap_3
XFILLER_18_97 VGND VGND VPWR VPWR sky130_fd_sc_hd__fill_1
XFILLER_55_172 VGND VGND VPWR VPWR sky130_fd_sc_hd__decap_3
XFILLER_34_41 VGND VGND VPWR VPWR sky130_fd_sc_hd__decap_3
XFILLER_34_63 VGND VGND VPWR VPWR sky130_fd_sc_hd__decap_3
XTAP_TAPCELL_ROW_13_248 VGND VPWR sky130_fd_sc_hd__tapvpwrvgnd_1
XFILLER_11_231 VGND VGND VPWR VPWR sky130_fd_sc_hd__decap_3
XFILLER_11_220 VGND VGND VPWR VPWR sky130_fd_sc_hd__decap_3
XFILLER_7_246 VGND VGND VPWR VPWR sky130_fd_sc_hd__decap_3
XFILLER_50_62 VGND VGND VPWR VPWR sky130_fd_sc_hd__decap_3
XFILLER_50_95 VGND VGND VPWR VPWR sky130_fd_sc_hd__decap_3
X_2070_ net744 net695 VGND VGND VPWR VPWR Inst_LUT4AB_ConfigMem.Inst_frame1_bit7.Q
+ sky130_fd_sc_hd__dlxtp_1
XFILLER_19_353 VGND VGND VPWR VPWR sky130_fd_sc_hd__fill_1
X_1021_ net86 net97 net12 net125 Inst_LUT4AB_ConfigMem.Inst_frame5_bit3.Q Inst_LUT4AB_ConfigMem.Inst_frame5_bit2.Q
+ VGND VGND VPWR VPWR _0149_ sky130_fd_sc_hd__mux4_1
XFILLER_46_150 VGND VGND VPWR VPWR sky130_fd_sc_hd__fill_2
XTAP_TAPCELL_ROW_64_605 VGND VPWR sky130_fd_sc_hd__tapvpwrvgnd_1
XFILLER_34_312 VGND VGND VPWR VPWR sky130_fd_sc_hd__decap_3
XFILLER_34_356 VGND VGND VPWR VPWR sky130_fd_sc_hd__decap_3
XTAP_TAPCELL_ROW_72_660 VGND VPWR sky130_fd_sc_hd__tapvpwrvgnd_1
X_1923_ net778 net674 VGND VGND VPWR VPWR Inst_LUT4AB_ConfigMem.Inst_frame6_bit20.Q
+ sky130_fd_sc_hd__dlxtp_1
X_1854_ net790 net668 VGND VGND VPWR VPWR Inst_LUT4AB_ConfigMem.Inst_frame8_bit15.Q
+ sky130_fd_sc_hd__dlxtp_1
X_1785_ net800 net732 VGND VGND VPWR VPWR Inst_LUT4AB_ConfigMem.Inst_frame10_bit10.Q
+ sky130_fd_sc_hd__dlxtp_1
X_0805_ Inst_LA_LUT4c_frame_config_dffesr.inst_cus_mux161_buf.A6 Inst_LA_LUT4c_frame_config_dffesr.inst_cus_mux161_buf.A7
+ _0628_ VGND VGND VPWR VPWR _0651_ sky130_fd_sc_hd__mux2_1
X_0736_ net462 net628 net619 net404 Inst_LUT4AB_ConfigMem.Inst_frame3_bit6.Q Inst_LUT4AB_ConfigMem.Inst_frame3_bit7.Q
+ VGND VGND VPWR VPWR _0588_ sky130_fd_sc_hd__mux4_1
X_2337_ Inst_LUT4AB_switch_matrix.SS4BEG2 VGND VGND VPWR VPWR net335 sky130_fd_sc_hd__buf_1
XFILLER_37_150 VGND VGND VPWR VPWR sky130_fd_sc_hd__decap_3
X_1219_ Inst_LUT4AB_ConfigMem.Inst_frame8_bit21.Q _0332_ _0334_ VGND VGND VPWR VPWR
+ _0335_ sky130_fd_sc_hd__a21oi_4
XFILLER_25_334 VGND VGND VPWR VPWR sky130_fd_sc_hd__fill_2
X_2199_ net788 VGND VGND VPWR VPWR net197 sky130_fd_sc_hd__clkbuf_1
XFILLER_52_186 VGND VGND VPWR VPWR sky130_fd_sc_hd__decap_3
XPHY_EDGE_ROW_33_Left_107 VGND VGND VPWR VPWR sky130_fd_sc_hd__decap_3
XFILLER_52_197 VGND VGND VPWR VPWR sky130_fd_sc_hd__decap_3
XTAP_TAPCELL_ROW_10_229 VGND VPWR sky130_fd_sc_hd__tapvpwrvgnd_1
XPHY_EDGE_ROW_42_Left_116 VGND VGND VPWR VPWR sky130_fd_sc_hd__decap_3
XFILLER_29_30 VGND VGND VPWR VPWR sky130_fd_sc_hd__fill_2
XFILLER_29_63 VGND VGND VPWR VPWR sky130_fd_sc_hd__decap_3
XFILLER_16_301 VGND VGND VPWR VPWR sky130_fd_sc_hd__decap_3
XFILLER_28_161 VGND VGND VPWR VPWR sky130_fd_sc_hd__decap_3
XFILLER_28_194 VGND VGND VPWR VPWR sky130_fd_sc_hd__fill_2
XFILLER_43_120 VGND VGND VPWR VPWR sky130_fd_sc_hd__fill_2
XTAP_TAPCELL_ROW_26_340 VGND VPWR sky130_fd_sc_hd__tapvpwrvgnd_1
XFILLER_31_326 VGND VGND VPWR VPWR sky130_fd_sc_hd__decap_3
XPHY_EDGE_ROW_51_Left_125 VGND VGND VPWR VPWR sky130_fd_sc_hd__decap_3
XFILLER_31_337 VGND VGND VPWR VPWR sky130_fd_sc_hd__fill_2
XFILLER_61_72 VGND VGND VPWR VPWR sky130_fd_sc_hd__fill_1
X_1570_ net782 net706 VGND VGND VPWR VPWR Inst_LD_LUT4c_frame_config_dffesr.inst_cus_mux161_buf.A2
+ sky130_fd_sc_hd__dlxtp_1
XPHY_EDGE_ROW_60_Left_134 VGND VGND VPWR VPWR sky130_fd_sc_hd__decap_3
XFILLER_13_3 VGND VGND VPWR VPWR sky130_fd_sc_hd__fill_1
X_2122_ net764 net737 VGND VGND VPWR VPWR Inst_LUT4AB_ConfigMem.Inst_frame0_bit27.Q
+ sky130_fd_sc_hd__dlxtp_1
XFILLER_66_212 VGND VGND VPWR VPWR sky130_fd_sc_hd__decap_3
XFILLER_26_109 VGND VGND VPWR VPWR sky130_fd_sc_hd__decap_3
XFILLER_66_256 VGND VGND VPWR VPWR sky130_fd_sc_hd__fill_1
XTAP_TAPCELL_ROW_49_498 VGND VPWR sky130_fd_sc_hd__tapvpwrvgnd_1
X_2053_ net774 net693 VGND VGND VPWR VPWR Inst_LUT4AB_ConfigMem.Inst_frame2_bit22.Q
+ sky130_fd_sc_hd__dlxtp_1
X_1004_ _0132_ _0133_ Inst_LUT4AB_ConfigMem.Inst_frame4_bit12.Q VGND VGND VPWR VPWR
+ _0134_ sky130_fd_sc_hd__mux2_1
XFILLER_34_153 VGND VGND VPWR VPWR sky130_fd_sc_hd__decap_3
XFILLER_34_186 VGND VGND VPWR VPWR sky130_fd_sc_hd__decap_3
XFILLER_34_197 VGND VGND VPWR VPWR sky130_fd_sc_hd__fill_2
X_1906_ net752 net675 VGND VGND VPWR VPWR Inst_LUT4AB_ConfigMem.Inst_frame6_bit3.Q
+ sky130_fd_sc_hd__dlxtp_1
Xrebuffer118 net513 VGND VGND VPWR VPWR net512 sky130_fd_sc_hd__dlygate4sd1_1
Xrebuffer129 net402 VGND VGND VPWR VPWR net523 sky130_fd_sc_hd__dlygate4sd1_1
X_1837_ net757 net664 VGND VGND VPWR VPWR Inst_LUT4AB_ConfigMem.Inst_frame9_bit30.Q
+ sky130_fd_sc_hd__dlxtp_1
X_1768_ net768 net728 VGND VGND VPWR VPWR Inst_LUT4AB_ConfigMem.Inst_frame11_bit25.Q
+ sky130_fd_sc_hd__dlxtp_1
X_1699_ net778 net721 VGND VGND VPWR VPWR Inst_LUT4AB_ConfigMem.Inst_frame13_bit20.Q
+ sky130_fd_sc_hd__dlxtp_1
X_0719_ net131 VGND VGND VPWR VPWR _0571_ sky130_fd_sc_hd__inv_1
XFILLER_57_278 VGND VGND VPWR VPWR sky130_fd_sc_hd__fill_2
XFILLER_15_32 VGND VGND VPWR VPWR sky130_fd_sc_hd__decap_3
XFILLER_13_337 VGND VGND VPWR VPWR sky130_fd_sc_hd__decap_3
XFILLER_13_326 VGND VGND VPWR VPWR sky130_fd_sc_hd__decap_3
XTAP_TAPCELL_ROW_23_321 VGND VPWR sky130_fd_sc_hd__tapvpwrvgnd_1
XFILLER_21_370 VGND VGND VPWR VPWR sky130_fd_sc_hd__decap_3
XFILLER_31_97 VGND VGND VPWR VPWR sky130_fd_sc_hd__decap_3
Xinput120 W2END[1] VGND VGND VPWR VPWR net120 sky130_fd_sc_hd__buf_2
Xinput131 W2MID[4] VGND VGND VPWR VPWR net131 sky130_fd_sc_hd__buf_2
XFILLER_48_256 VGND VGND VPWR VPWR sky130_fd_sc_hd__decap_3
XFILLER_56_50 VGND VGND VPWR VPWR sky130_fd_sc_hd__decap_3
XFILLER_56_83 VGND VGND VPWR VPWR sky130_fd_sc_hd__fill_1
XFILLER_16_153 VGND VGND VPWR VPWR sky130_fd_sc_hd__decap_3
XTAP_TAPCELL_ROW_46_479 VGND VPWR sky130_fd_sc_hd__tapvpwrvgnd_1
XFILLER_16_197 VGND VGND VPWR VPWR sky130_fd_sc_hd__decap_3
XFILLER_16_186 VGND VGND VPWR VPWR sky130_fd_sc_hd__fill_1
XFILLER_31_134 VGND VGND VPWR VPWR sky130_fd_sc_hd__decap_3
XFILLER_71_292 VGND VGND VPWR VPWR sky130_fd_sc_hd__decap_3
XFILLER_31_167 VGND VGND VPWR VPWR sky130_fd_sc_hd__fill_1
XFILLER_8_330 VGND VGND VPWR VPWR sky130_fd_sc_hd__decap_3
XFILLER_8_363 VGND VGND VPWR VPWR sky130_fd_sc_hd__fill_1
X_1622_ net745 net712 VGND VGND VPWR VPWR Inst_LF_LUT4c_frame_config_dffesr.c_out_mux
+ sky130_fd_sc_hd__dlxtp_1