* NGSPICE file created from N_term_single2.ext - technology: sky130A

* Black-box entry subcircuit for sky130_fd_sc_hd__fill_1 abstract view
.subckt sky130_fd_sc_hd__fill_1 VGND VNB VPB VPWR
.ends

* Black-box entry subcircuit for sky130_fd_sc_hd__tapvpwrvgnd_1 abstract view
.subckt sky130_fd_sc_hd__tapvpwrvgnd_1 VGND VPWR
.ends

* Black-box entry subcircuit for sky130_fd_sc_hd__decap_3 abstract view
.subckt sky130_fd_sc_hd__decap_3 VGND VNB VPB VPWR
.ends

* Black-box entry subcircuit for sky130_fd_sc_hd__buf_1 abstract view
.subckt sky130_fd_sc_hd__buf_1 A VGND VNB VPB VPWR X
.ends

* Black-box entry subcircuit for sky130_fd_sc_hd__clkbuf_1 abstract view
.subckt sky130_fd_sc_hd__clkbuf_1 A VGND VNB VPB VPWR X
.ends

* Black-box entry subcircuit for sky130_fd_sc_hd__fill_2 abstract view
.subckt sky130_fd_sc_hd__fill_2 VGND VNB VPB VPWR
.ends

* Black-box entry subcircuit for sky130_fd_sc_hd__diode_2 abstract view
.subckt sky130_fd_sc_hd__diode_2 DIODE VGND VNB VPB VPWR
.ends

* Black-box entry subcircuit for sky130_fd_sc_hd__buf_2 abstract view
.subckt sky130_fd_sc_hd__buf_2 A VGND VNB VPB VPWR X
.ends

* Black-box entry subcircuit for sky130_fd_sc_hd__clkbuf_2 abstract view
.subckt sky130_fd_sc_hd__clkbuf_2 A VGND VNB VPB VPWR X
.ends

.subckt N_term_single2 FrameData[0] FrameData[10] FrameData[11] FrameData[12] FrameData[13]
+ FrameData[14] FrameData[15] FrameData[16] FrameData[17] FrameData[18] FrameData[19]
+ FrameData[1] FrameData[20] FrameData[21] FrameData[22] FrameData[23] FrameData[24]
+ FrameData[25] FrameData[26] FrameData[27] FrameData[28] FrameData[29] FrameData[2]
+ FrameData[30] FrameData[31] FrameData[3] FrameData[4] FrameData[5] FrameData[6]
+ FrameData[7] FrameData[8] FrameData[9] FrameData_O[0] FrameData_O[10] FrameData_O[11]
+ FrameData_O[12] FrameData_O[13] FrameData_O[14] FrameData_O[15] FrameData_O[16]
+ FrameData_O[17] FrameData_O[18] FrameData_O[19] FrameData_O[1] FrameData_O[20] FrameData_O[21]
+ FrameData_O[22] FrameData_O[23] FrameData_O[24] FrameData_O[25] FrameData_O[26]
+ FrameData_O[27] FrameData_O[28] FrameData_O[29] FrameData_O[2] FrameData_O[30] FrameData_O[31]
+ FrameData_O[3] FrameData_O[4] FrameData_O[5] FrameData_O[6] FrameData_O[7] FrameData_O[8]
+ FrameData_O[9] FrameStrobe[0] FrameStrobe[10] FrameStrobe[11] FrameStrobe[12] FrameStrobe[13]
+ FrameStrobe[14] FrameStrobe[15] FrameStrobe[16] FrameStrobe[17] FrameStrobe[18]
+ FrameStrobe[19] FrameStrobe[1] FrameStrobe[2] FrameStrobe[3] FrameStrobe[4] FrameStrobe[5]
+ FrameStrobe[6] FrameStrobe[7] FrameStrobe[8] FrameStrobe[9] FrameStrobe_O[0] FrameStrobe_O[10]
+ FrameStrobe_O[11] FrameStrobe_O[12] FrameStrobe_O[13] FrameStrobe_O[14] FrameStrobe_O[15]
+ FrameStrobe_O[16] FrameStrobe_O[17] FrameStrobe_O[18] FrameStrobe_O[19] FrameStrobe_O[1]
+ FrameStrobe_O[2] FrameStrobe_O[3] FrameStrobe_O[4] FrameStrobe_O[5] FrameStrobe_O[6]
+ FrameStrobe_O[7] FrameStrobe_O[8] FrameStrobe_O[9] N1END[0] N1END[1] N1END[2] N1END[3]
+ N2END[0] N2END[1] N2END[2] N2END[3] N2END[4] N2END[5] N2END[6] N2END[7] N2MID[0]
+ N2MID[1] N2MID[2] N2MID[3] N2MID[4] N2MID[5] N2MID[6] N2MID[7] N4END[0] N4END[10]
+ N4END[11] N4END[12] N4END[13] N4END[14] N4END[15] N4END[1] N4END[2] N4END[3] N4END[4]
+ N4END[5] N4END[6] N4END[7] N4END[8] N4END[9] NN4END[0] NN4END[10] NN4END[11] NN4END[12]
+ NN4END[13] NN4END[14] NN4END[15] NN4END[1] NN4END[2] NN4END[3] NN4END[4] NN4END[5]
+ NN4END[6] NN4END[7] NN4END[8] NN4END[9] S1BEG[0] S1BEG[1] S1BEG[2] S1BEG[3] S2BEG[0]
+ S2BEG[1] S2BEG[2] S2BEG[3] S2BEG[4] S2BEG[5] S2BEG[6] S2BEG[7] S2BEGb[0] S2BEGb[1]
+ S2BEGb[2] S2BEGb[3] S2BEGb[4] S2BEGb[5] S2BEGb[6] S2BEGb[7] S4BEG[0] S4BEG[10] S4BEG[11]
+ S4BEG[12] S4BEG[13] S4BEG[14] S4BEG[15] S4BEG[1] S4BEG[2] S4BEG[3] S4BEG[4] S4BEG[5]
+ S4BEG[6] S4BEG[7] S4BEG[8] S4BEG[9] SS4BEG[0] SS4BEG[10] SS4BEG[11] SS4BEG[12] SS4BEG[13]
+ SS4BEG[14] SS4BEG[15] SS4BEG[1] SS4BEG[2] SS4BEG[3] SS4BEG[4] SS4BEG[5] SS4BEG[6]
+ SS4BEG[7] SS4BEG[8] SS4BEG[9] UserCLK UserCLKo VGND VPWR
XFILLER_10_339 VGND VGND VPWR VPWR sky130_fd_sc_hd__fill_1
XTAP_TAPCELL_ROW_9_104 VGND VPWR sky130_fd_sc_hd__tapvpwrvgnd_1
XFILLER_9_159 VGND VGND VPWR VPWR sky130_fd_sc_hd__decap_3
XFILLER_9_137 VGND VGND VPWR VPWR sky130_fd_sc_hd__decap_3
XFILLER_3_12 VGND VGND VPWR VPWR sky130_fd_sc_hd__decap_3
XFILLER_3_45 VGND VGND VPWR VPWR sky130_fd_sc_hd__decap_3
XFILLER_5_343 VGND VGND VPWR VPWR sky130_fd_sc_hd__decap_3
XFILLER_5_376 VGND VGND VPWR VPWR sky130_fd_sc_hd__decap_3
XFILLER_3_89 VGND VGND VPWR VPWR sky130_fd_sc_hd__decap_3
XFILLER_8_192 VGND VGND VPWR VPWR sky130_fd_sc_hd__decap_3
XFILLER_10_147 VGND VGND VPWR VPWR sky130_fd_sc_hd__decap_3
XFILLER_10_136 VGND VGND VPWR VPWR sky130_fd_sc_hd__decap_3
XFILLER_10_114 VGND VGND VPWR VPWR sky130_fd_sc_hd__decap_3
XFILLER_6_118 VGND VGND VPWR VPWR sky130_fd_sc_hd__decap_3
XPHY_EDGE_ROW_0_Left_12 VGND VGND VPWR VPWR sky130_fd_sc_hd__decap_3
XFILLER_2_324 VGND VGND VPWR VPWR sky130_fd_sc_hd__decap_3
XFILLER_2_357 VGND VGND VPWR VPWR sky130_fd_sc_hd__decap_3
XTAP_TAPCELL_ROW_8_99 VGND VPWR sky130_fd_sc_hd__tapvpwrvgnd_1
XTAP_TAPCELL_ROW_11_131 VGND VPWR sky130_fd_sc_hd__tapvpwrvgnd_1
XTAP_TAPCELL_ROW_11_120 VGND VPWR sky130_fd_sc_hd__tapvpwrvgnd_1
XFILLER_5_140 VGND VGND VPWR VPWR sky130_fd_sc_hd__decap_3
XFILLER_5_184 VGND VGND VPWR VPWR sky130_fd_sc_hd__decap_3
XFILLER_11_412 VGND VGND VPWR VPWR sky130_fd_sc_hd__decap_3
X_062_ N2MID[1] VGND VGND VPWR VPWR net63 sky130_fd_sc_hd__buf_1
XFILLER_7_449 VGND VGND VPWR VPWR sky130_fd_sc_hd__decap_3
XFILLER_2_165 VGND VGND VPWR VPWR sky130_fd_sc_hd__decap_3
XFILLER_2_121 VGND VGND VPWR VPWR sky130_fd_sc_hd__decap_3
XFILLER_2_187 VGND VGND VPWR VPWR sky130_fd_sc_hd__decap_3
XFILLER_0_35 VGND VGND VPWR VPWR sky130_fd_sc_hd__decap_3
XFILLER_0_57 VGND VGND VPWR VPWR sky130_fd_sc_hd__decap_3
XFILLER_9_99 VGND VGND VPWR VPWR sky130_fd_sc_hd__decap_3
XFILLER_9_66 VGND VGND VPWR VPWR sky130_fd_sc_hd__decap_3
XFILLER_9_33 VGND VGND VPWR VPWR sky130_fd_sc_hd__decap_3
XFILLER_4_419 VGND VGND VPWR VPWR sky130_fd_sc_hd__fill_1
XFILLER_11_253 VGND VGND VPWR VPWR sky130_fd_sc_hd__decap_3
XFILLER_11_242 VGND VGND VPWR VPWR sky130_fd_sc_hd__decap_3
XFILLER_11_231 VGND VGND VPWR VPWR sky130_fd_sc_hd__decap_3
XTAP_TAPCELL_ROW_5_78 VGND VPWR sky130_fd_sc_hd__tapvpwrvgnd_1
XFILLER_11_297 VGND VGND VPWR VPWR sky130_fd_sc_hd__decap_3
X_045_ FrameStrobe[13] VGND VGND VPWR VPWR net37 sky130_fd_sc_hd__clkbuf_1
XFILLER_3_441 VGND VGND VPWR VPWR sky130_fd_sc_hd__decap_3
XFILLER_3_452 VGND VGND VPWR VPWR sky130_fd_sc_hd__decap_3
XFILLER_3_463 VGND VGND VPWR VPWR sky130_fd_sc_hd__fill_2
XFILLER_6_290 VGND VGND VPWR VPWR sky130_fd_sc_hd__decap_3
XFILLER_4_227 VGND VGND VPWR VPWR sky130_fd_sc_hd__decap_3
XFILLER_0_433 VGND VGND VPWR VPWR sky130_fd_sc_hd__decap_3
X_028_ FrameData[28] VGND VGND VPWR VPWR net21 sky130_fd_sc_hd__clkbuf_1
XANTENNA_5 FrameData[19] VGND VGND VPWR VPWR sky130_fd_sc_hd__diode_2
XFILLER_6_56 VGND VGND VPWR VPWR sky130_fd_sc_hd__decap_3
XFILLER_1_208 VGND VGND VPWR VPWR sky130_fd_sc_hd__decap_3
XFILLER_9_319 VGND VGND VPWR VPWR sky130_fd_sc_hd__decap_3
Xoutput20 net20 VGND VGND VPWR VPWR FrameData_O[27] sky130_fd_sc_hd__buf_2
Xoutput42 net42 VGND VGND VPWR VPWR FrameStrobe_O[18] sky130_fd_sc_hd__buf_2
Xoutput75 net75 VGND VGND VPWR VPWR S4BEG[11] sky130_fd_sc_hd__buf_2
Xoutput64 net64 VGND VGND VPWR VPWR S2BEG[7] sky130_fd_sc_hd__buf_2
Xoutput53 net53 VGND VGND VPWR VPWR S1BEG[0] sky130_fd_sc_hd__buf_2
Xoutput31 net31 VGND VGND VPWR VPWR FrameData_O[8] sky130_fd_sc_hd__buf_2
Xoutput7 net7 VGND VGND VPWR VPWR FrameData_O[15] sky130_fd_sc_hd__buf_2
Xoutput97 net97 VGND VGND VPWR VPWR SS4BEG[2] sky130_fd_sc_hd__buf_2
Xoutput86 net86 VGND VGND VPWR VPWR S4BEG[7] sky130_fd_sc_hd__buf_2
XFILLER_8_341 VGND VGND VPWR VPWR sky130_fd_sc_hd__decap_3
XFILLER_8_374 VGND VGND VPWR VPWR sky130_fd_sc_hd__decap_3
XFILLER_10_318 VGND VGND VPWR VPWR sky130_fd_sc_hd__decap_3
XFILLER_10_307 VGND VGND VPWR VPWR sky130_fd_sc_hd__fill_1
XTAP_TAPCELL_ROW_9_105 VGND VPWR sky130_fd_sc_hd__tapvpwrvgnd_1
XFILLER_9_116 VGND VGND VPWR VPWR sky130_fd_sc_hd__decap_3
XFILLER_9_105 VGND VGND VPWR VPWR sky130_fd_sc_hd__decap_3
XFILLER_5_311 VGND VGND VPWR VPWR sky130_fd_sc_hd__decap_3
XFILLER_5_333 VGND VGND VPWR VPWR sky130_fd_sc_hd__decap_3
XFILLER_5_355 VGND VGND VPWR VPWR sky130_fd_sc_hd__decap_3
XFILLER_3_24 VGND VGND VPWR VPWR sky130_fd_sc_hd__decap_3
XFILLER_3_57 VGND VGND VPWR VPWR sky130_fd_sc_hd__decap_3
XFILLER_5_388 VGND VGND VPWR VPWR sky130_fd_sc_hd__decap_3
XFILLER_5_399 VGND VGND VPWR VPWR sky130_fd_sc_hd__decap_3
XFILLER_8_171 VGND VGND VPWR VPWR sky130_fd_sc_hd__decap_3
XFILLER_10_159 VGND VGND VPWR VPWR sky130_fd_sc_hd__decap_3
XFILLER_2_336 VGND VGND VPWR VPWR sky130_fd_sc_hd__decap_3
XTAP_TAPCELL_ROW_11_121 VGND VPWR sky130_fd_sc_hd__tapvpwrvgnd_1
XTAP_TAPCELL_ROW_11_132 VGND VPWR sky130_fd_sc_hd__tapvpwrvgnd_1
XFILLER_5_152 VGND VGND VPWR VPWR sky130_fd_sc_hd__decap_3
XFILLER_5_196 VGND VGND VPWR VPWR sky130_fd_sc_hd__decap_3
XFILLER_11_435 VGND VGND VPWR VPWR sky130_fd_sc_hd__decap_3
XFILLER_7_406 VGND VGND VPWR VPWR sky130_fd_sc_hd__decap_3
XFILLER_2_100 VGND VGND VPWR VPWR sky130_fd_sc_hd__decap_3
X_061_ N2MID[2] VGND VGND VPWR VPWR net62 sky130_fd_sc_hd__buf_1
XFILLER_7_428 VGND VGND VPWR VPWR sky130_fd_sc_hd__fill_2
XFILLER_7_439 VGND VGND VPWR VPWR sky130_fd_sc_hd__decap_3
XFILLER_2_144 VGND VGND VPWR VPWR sky130_fd_sc_hd__decap_3
XFILLER_2_133 VGND VGND VPWR VPWR sky130_fd_sc_hd__decap_3
XFILLER_0_25 VGND VGND VPWR VPWR sky130_fd_sc_hd__decap_3
XFILLER_0_47 VGND VGND VPWR VPWR sky130_fd_sc_hd__decap_3
XFILLER_0_69 VGND VGND VPWR VPWR sky130_fd_sc_hd__decap_3
XFILLER_9_12 VGND VGND VPWR VPWR sky130_fd_sc_hd__decap_3
XFILLER_9_78 VGND VGND VPWR VPWR sky130_fd_sc_hd__decap_3
XFILLER_9_45 VGND VGND VPWR VPWR sky130_fd_sc_hd__decap_3
XFILLER_11_265 VGND VGND VPWR VPWR sky130_fd_sc_hd__decap_3
XTAP_TAPCELL_ROW_5_79 VGND VPWR sky130_fd_sc_hd__tapvpwrvgnd_1
XFILLER_7_203 VGND VGND VPWR VPWR sky130_fd_sc_hd__decap_3
XFILLER_7_225 VGND VGND VPWR VPWR sky130_fd_sc_hd__decap_3
XFILLER_7_247 VGND VGND VPWR VPWR sky130_fd_sc_hd__decap_3
X_044_ FrameStrobe[12] VGND VGND VPWR VPWR net36 sky130_fd_sc_hd__buf_1
XFILLER_3_420 VGND VGND VPWR VPWR sky130_fd_sc_hd__decap_3
XFILLER_6_280 VGND VGND VPWR VPWR sky130_fd_sc_hd__fill_1
XFILLER_1_90 VGND VGND VPWR VPWR sky130_fd_sc_hd__decap_3
XFILLER_4_206 VGND VGND VPWR VPWR sky130_fd_sc_hd__decap_3
XFILLER_4_239 VGND VGND VPWR VPWR sky130_fd_sc_hd__fill_1
XFILLER_0_445 VGND VGND VPWR VPWR sky130_fd_sc_hd__decap_3
XANTENNA_6 FrameData[22] VGND VGND VPWR VPWR sky130_fd_sc_hd__diode_2
XFILLER_6_13 VGND VGND VPWR VPWR sky130_fd_sc_hd__decap_3
XFILLER_6_35 VGND VGND VPWR VPWR sky130_fd_sc_hd__decap_3
X_027_ FrameData[27] VGND VGND VPWR VPWR net20 sky130_fd_sc_hd__clkbuf_1
XFILLER_3_261 VGND VGND VPWR VPWR sky130_fd_sc_hd__decap_3
XFILLER_3_294 VGND VGND VPWR VPWR sky130_fd_sc_hd__decap_3
XFILLER_6_68 VGND VGND VPWR VPWR sky130_fd_sc_hd__decap_3
XPHY_EDGE_ROW_6_Right_6 VGND VGND VPWR VPWR sky130_fd_sc_hd__decap_3
Xoutput43 net43 VGND VGND VPWR VPWR FrameStrobe_O[19] sky130_fd_sc_hd__buf_2
Xoutput21 net21 VGND VGND VPWR VPWR FrameData_O[28] sky130_fd_sc_hd__buf_2
Xoutput98 net98 VGND VGND VPWR VPWR SS4BEG[3] sky130_fd_sc_hd__buf_2
Xoutput76 net76 VGND VGND VPWR VPWR S4BEG[12] sky130_fd_sc_hd__buf_2
Xoutput87 net87 VGND VGND VPWR VPWR S4BEG[8] sky130_fd_sc_hd__buf_2
Xoutput65 net65 VGND VGND VPWR VPWR S2BEGb[0] sky130_fd_sc_hd__buf_2
Xoutput54 net54 VGND VGND VPWR VPWR S1BEG[1] sky130_fd_sc_hd__buf_2
Xoutput32 net32 VGND VGND VPWR VPWR FrameData_O[9] sky130_fd_sc_hd__buf_2
Xoutput10 net10 VGND VGND VPWR VPWR FrameData_O[18] sky130_fd_sc_hd__buf_2
Xoutput8 net8 VGND VGND VPWR VPWR FrameData_O[16] sky130_fd_sc_hd__buf_2
XFILLER_8_353 VGND VGND VPWR VPWR sky130_fd_sc_hd__decap_3
XFILLER_8_386 VGND VGND VPWR VPWR sky130_fd_sc_hd__decap_3
XTAP_TAPCELL_ROW_9_106 VGND VPWR sky130_fd_sc_hd__tapvpwrvgnd_1
XFILLER_7_9 VGND VGND VPWR VPWR sky130_fd_sc_hd__decap_3
XFILLER_9_128 VGND VGND VPWR VPWR sky130_fd_sc_hd__decap_3
XFILLER_5_323 VGND VGND VPWR VPWR sky130_fd_sc_hd__decap_3
XFILLER_5_367 VGND VGND VPWR VPWR sky130_fd_sc_hd__decap_3
XFILLER_3_36 VGND VGND VPWR VPWR sky130_fd_sc_hd__decap_3
XFILLER_3_69 VGND VGND VPWR VPWR sky130_fd_sc_hd__fill_2
XFILLER_8_150 VGND VGND VPWR VPWR sky130_fd_sc_hd__decap_3
XFILLER_8_183 VGND VGND VPWR VPWR sky130_fd_sc_hd__decap_3
XFILLER_10_105 VGND VGND VPWR VPWR sky130_fd_sc_hd__decap_3
XFILLER_10_127 VGND VGND VPWR VPWR sky130_fd_sc_hd__decap_3
XFILLER_6_109 VGND VGND VPWR VPWR sky130_fd_sc_hd__decap_3
XFILLER_2_315 VGND VGND VPWR VPWR sky130_fd_sc_hd__decap_3
XFILLER_2_348 VGND VGND VPWR VPWR sky130_fd_sc_hd__decap_3
XFILLER_5_6 VGND VGND VPWR VPWR sky130_fd_sc_hd__decap_3
XTAP_TAPCELL_ROW_11_133 VGND VPWR sky130_fd_sc_hd__tapvpwrvgnd_1
XTAP_TAPCELL_ROW_11_122 VGND VPWR sky130_fd_sc_hd__tapvpwrvgnd_1
XFILLER_5_131 VGND VGND VPWR VPWR sky130_fd_sc_hd__decap_3
XFILLER_5_175 VGND VGND VPWR VPWR sky130_fd_sc_hd__decap_3
XFILLER_1_370 VGND VGND VPWR VPWR sky130_fd_sc_hd__decap_3
XFILLER_11_447 VGND VGND VPWR VPWR sky130_fd_sc_hd__fill_1
XFILLER_11_403 VGND VGND VPWR VPWR sky130_fd_sc_hd__decap_3
X_060_ N2MID[3] VGND VGND VPWR VPWR net61 sky130_fd_sc_hd__buf_1
XFILLER_2_156 VGND VGND VPWR VPWR sky130_fd_sc_hd__decap_3
XFILLER_2_112 VGND VGND VPWR VPWR sky130_fd_sc_hd__decap_3
XFILLER_3_3 VGND VGND VPWR VPWR sky130_fd_sc_hd__decap_3
XFILLER_2_178 VGND VGND VPWR VPWR sky130_fd_sc_hd__decap_3
XFILLER_9_24 VGND VGND VPWR VPWR sky130_fd_sc_hd__decap_3
XFILLER_6_451 VGND VGND VPWR VPWR sky130_fd_sc_hd__decap_3
XFILLER_6_462 VGND VGND VPWR VPWR sky130_fd_sc_hd__decap_3
XFILLER_9_57 VGND VGND VPWR VPWR sky130_fd_sc_hd__decap_3
XFILLER_11_288 VGND VGND VPWR VPWR sky130_fd_sc_hd__decap_3
XFILLER_11_277 VGND VGND VPWR VPWR sky130_fd_sc_hd__decap_3
XFILLER_11_222 VGND VGND VPWR VPWR sky130_fd_sc_hd__fill_2
XFILLER_11_200 VGND VGND VPWR VPWR sky130_fd_sc_hd__decap_3
XFILLER_7_215 VGND VGND VPWR VPWR sky130_fd_sc_hd__decap_3
XFILLER_7_259 VGND VGND VPWR VPWR sky130_fd_sc_hd__decap_3
X_043_ FrameStrobe[11] VGND VGND VPWR VPWR net35 sky130_fd_sc_hd__buf_1
XFILLER_3_432 VGND VGND VPWR VPWR sky130_fd_sc_hd__decap_3
XFILLER_0_424 VGND VGND VPWR VPWR sky130_fd_sc_hd__decap_3
XFILLER_0_413 VGND VGND VPWR VPWR sky130_fd_sc_hd__decap_3
XFILLER_4_218 VGND VGND VPWR VPWR sky130_fd_sc_hd__decap_3
X_026_ FrameData[26] VGND VGND VPWR VPWR net19 sky130_fd_sc_hd__clkbuf_1
XANTENNA_7 FrameData[24] VGND VGND VPWR VPWR sky130_fd_sc_hd__diode_2
XFILLER_6_25 VGND VGND VPWR VPWR sky130_fd_sc_hd__decap_3
XFILLER_6_47 VGND VGND VPWR VPWR sky130_fd_sc_hd__decap_3
XFILLER_3_240 VGND VGND VPWR VPWR sky130_fd_sc_hd__decap_3
XFILLER_3_273 VGND VGND VPWR VPWR sky130_fd_sc_hd__decap_3
XTAP_TAPCELL_ROW_2_48 VGND VPWR sky130_fd_sc_hd__tapvpwrvgnd_1
Xoutput44 net44 VGND VGND VPWR VPWR FrameStrobe_O[1] sky130_fd_sc_hd__buf_2
Xoutput33 net33 VGND VGND VPWR VPWR FrameStrobe_O[0] sky130_fd_sc_hd__buf_2
Xoutput22 net22 VGND VGND VPWR VPWR FrameData_O[29] sky130_fd_sc_hd__buf_2
Xoutput99 net99 VGND VGND VPWR VPWR SS4BEG[4] sky130_fd_sc_hd__buf_2
Xoutput77 net77 VGND VGND VPWR VPWR S4BEG[13] sky130_fd_sc_hd__buf_2
Xoutput88 net88 VGND VGND VPWR VPWR S4BEG[9] sky130_fd_sc_hd__buf_2
Xoutput66 net66 VGND VGND VPWR VPWR S2BEGb[1] sky130_fd_sc_hd__buf_2
Xoutput55 net55 VGND VGND VPWR VPWR S1BEG[2] sky130_fd_sc_hd__buf_2
Xoutput11 net11 VGND VGND VPWR VPWR FrameData_O[19] sky130_fd_sc_hd__buf_2
Xoutput9 net9 VGND VGND VPWR VPWR FrameData_O[17] sky130_fd_sc_hd__buf_2
XFILLER_8_321 VGND VGND VPWR VPWR sky130_fd_sc_hd__decap_3
X_009_ FrameData[9] VGND VGND VPWR VPWR net32 sky130_fd_sc_hd__clkbuf_2
XFILLER_8_365 VGND VGND VPWR VPWR sky130_fd_sc_hd__decap_3
XFILLER_8_398 VGND VGND VPWR VPWR sky130_fd_sc_hd__decap_3
XFILLER_10_309 VGND VGND VPWR VPWR sky130_fd_sc_hd__decap_3
XFILLER_7_90 VGND VGND VPWR VPWR sky130_fd_sc_hd__decap_3
XTAP_TAPCELL_ROW_9_107 VGND VPWR sky130_fd_sc_hd__tapvpwrvgnd_1
XFILLER_5_302 VGND VGND VPWR VPWR sky130_fd_sc_hd__decap_3
XFILLER_5_346 VGND VGND VPWR VPWR sky130_fd_sc_hd__decap_3
XFILLER_5_379 VGND VGND VPWR VPWR sky130_fd_sc_hd__decap_3
XFILLER_3_15 VGND VGND VPWR VPWR sky130_fd_sc_hd__decap_3
XFILLER_3_48 VGND VGND VPWR VPWR sky130_fd_sc_hd__decap_3
XFILLER_8_162 VGND VGND VPWR VPWR sky130_fd_sc_hd__decap_3
XFILLER_8_195 VGND VGND VPWR VPWR sky130_fd_sc_hd__fill_1
XFILLER_10_139 VGND VGND VPWR VPWR sky130_fd_sc_hd__fill_1
XFILLER_10_117 VGND VGND VPWR VPWR sky130_fd_sc_hd__fill_1
XFILLER_2_327 VGND VGND VPWR VPWR sky130_fd_sc_hd__decap_3
XTAP_TAPCELL_ROW_11_134 VGND VPWR sky130_fd_sc_hd__tapvpwrvgnd_1
XTAP_TAPCELL_ROW_11_123 VGND VPWR sky130_fd_sc_hd__tapvpwrvgnd_1
XFILLER_5_143 VGND VGND VPWR VPWR sky130_fd_sc_hd__decap_3
XFILLER_5_165 VGND VGND VPWR VPWR sky130_fd_sc_hd__decap_3
XFILLER_5_187 VGND VGND VPWR VPWR sky130_fd_sc_hd__decap_3
XFILLER_1_393 VGND VGND VPWR VPWR sky130_fd_sc_hd__decap_3
XFILLER_4_80 VGND VGND VPWR VPWR sky130_fd_sc_hd__decap_3
XFILLER_4_91 VGND VGND VPWR VPWR sky130_fd_sc_hd__decap_3
XPHY_EDGE_ROW_4_Left_16 VGND VGND VPWR VPWR sky130_fd_sc_hd__decap_3
XFILLER_11_426 VGND VGND VPWR VPWR sky130_fd_sc_hd__decap_3
XFILLER_11_415 VGND VGND VPWR VPWR sky130_fd_sc_hd__decap_3
XFILLER_7_419 VGND VGND VPWR VPWR sky130_fd_sc_hd__decap_3
XFILLER_2_124 VGND VGND VPWR VPWR sky130_fd_sc_hd__decap_3
XFILLER_0_38 VGND VGND VPWR VPWR sky130_fd_sc_hd__decap_3
XFILLER_9_69 VGND VGND VPWR VPWR sky130_fd_sc_hd__decap_3
XFILLER_9_36 VGND VGND VPWR VPWR sky130_fd_sc_hd__decap_3
XFILLER_6_430 VGND VGND VPWR VPWR sky130_fd_sc_hd__decap_3
XFILLER_9_290 VGND VGND VPWR VPWR sky130_fd_sc_hd__decap_3
XFILLER_11_212 VGND VGND VPWR VPWR sky130_fd_sc_hd__decap_3
XFILLER_11_256 VGND VGND VPWR VPWR sky130_fd_sc_hd__decap_3
XFILLER_11_245 VGND VGND VPWR VPWR sky130_fd_sc_hd__decap_3
XFILLER_11_234 VGND VGND VPWR VPWR sky130_fd_sc_hd__decap_3
XFILLER_3_411 VGND VGND VPWR VPWR sky130_fd_sc_hd__decap_3
X_042_ FrameStrobe[10] VGND VGND VPWR VPWR net34 sky130_fd_sc_hd__buf_1
XFILLER_3_444 VGND VGND VPWR VPWR sky130_fd_sc_hd__decap_3
XFILLER_6_271 VGND VGND VPWR VPWR sky130_fd_sc_hd__decap_3
XFILLER_6_293 VGND VGND VPWR VPWR sky130_fd_sc_hd__decap_3
XFILLER_1_81 VGND VGND VPWR VPWR sky130_fd_sc_hd__decap_3
XFILLER_0_436 VGND VGND VPWR VPWR sky130_fd_sc_hd__decap_3
XFILLER_3_252 VGND VGND VPWR VPWR sky130_fd_sc_hd__decap_3
XFILLER_6_59 VGND VGND VPWR VPWR sky130_fd_sc_hd__decap_3
XANTENNA_8 FrameData[25] VGND VGND VPWR VPWR sky130_fd_sc_hd__diode_2
X_025_ FrameData[25] VGND VGND VPWR VPWR net18 sky130_fd_sc_hd__clkbuf_1
XFILLER_3_285 VGND VGND VPWR VPWR sky130_fd_sc_hd__decap_3
XTAP_TAPCELL_ROW_6_80 VGND VPWR sky130_fd_sc_hd__tapvpwrvgnd_1
Xoutput34 net34 VGND VGND VPWR VPWR FrameStrobe_O[10] sky130_fd_sc_hd__buf_2
XTAP_TAPCELL_ROW_2_49 VGND VPWR sky130_fd_sc_hd__tapvpwrvgnd_1
Xoutput12 net12 VGND VGND VPWR VPWR FrameData_O[1] sky130_fd_sc_hd__buf_2
Xoutput23 net23 VGND VGND VPWR VPWR FrameData_O[2] sky130_fd_sc_hd__buf_2
Xoutput45 net45 VGND VGND VPWR VPWR FrameStrobe_O[2] sky130_fd_sc_hd__buf_2
Xoutput89 net89 VGND VGND VPWR VPWR SS4BEG[0] sky130_fd_sc_hd__buf_2
Xoutput78 net78 VGND VGND VPWR VPWR S4BEG[14] sky130_fd_sc_hd__buf_2
XFILLER_0_277 VGND VGND VPWR VPWR sky130_fd_sc_hd__decap_3
Xoutput67 net67 VGND VGND VPWR VPWR S2BEGb[2] sky130_fd_sc_hd__buf_2
Xoutput56 net56 VGND VGND VPWR VPWR S1BEG[3] sky130_fd_sc_hd__buf_2
XFILLER_8_344 VGND VGND VPWR VPWR sky130_fd_sc_hd__decap_3
XFILLER_8_377 VGND VGND VPWR VPWR sky130_fd_sc_hd__decap_3
X_008_ FrameData[8] VGND VGND VPWR VPWR net31 sky130_fd_sc_hd__clkbuf_1
XFILLER_11_3 VGND VGND VPWR VPWR sky130_fd_sc_hd__decap_3
XTAP_TAPCELL_ROW_9_108 VGND VPWR sky130_fd_sc_hd__tapvpwrvgnd_1
XFILLER_9_108 VGND VGND VPWR VPWR sky130_fd_sc_hd__decap_3
XFILLER_3_27 VGND VGND VPWR VPWR sky130_fd_sc_hd__decap_3
XFILLER_5_314 VGND VGND VPWR VPWR sky130_fd_sc_hd__decap_3
XFILLER_5_358 VGND VGND VPWR VPWR sky130_fd_sc_hd__decap_3
XFILLER_8_130 VGND VGND VPWR VPWR sky130_fd_sc_hd__decap_3
XFILLER_8_141 VGND VGND VPWR VPWR sky130_fd_sc_hd__decap_3
XFILLER_8_174 VGND VGND VPWR VPWR sky130_fd_sc_hd__decap_3
XFILLER_4_380 VGND VGND VPWR VPWR sky130_fd_sc_hd__decap_3
XFILLER_2_306 VGND VGND VPWR VPWR sky130_fd_sc_hd__fill_2
XFILLER_2_339 VGND VGND VPWR VPWR sky130_fd_sc_hd__decap_3
XTAP_TAPCELL_ROW_11_135 VGND VPWR sky130_fd_sc_hd__tapvpwrvgnd_1
XTAP_TAPCELL_ROW_11_124 VGND VPWR sky130_fd_sc_hd__tapvpwrvgnd_1
XFILLER_5_111 VGND VGND VPWR VPWR sky130_fd_sc_hd__fill_1
XFILLER_5_122 VGND VGND VPWR VPWR sky130_fd_sc_hd__decap_3
XFILLER_5_155 VGND VGND VPWR VPWR sky130_fd_sc_hd__decap_3
XFILLER_1_361 VGND VGND VPWR VPWR sky130_fd_sc_hd__decap_3
XFILLER_5_199 VGND VGND VPWR VPWR sky130_fd_sc_hd__decap_3
XFILLER_9_461 VGND VGND VPWR VPWR sky130_fd_sc_hd__fill_1
XFILLER_11_438 VGND VGND VPWR VPWR sky130_fd_sc_hd__decap_3
XFILLER_7_409 VGND VGND VPWR VPWR sky130_fd_sc_hd__decap_3
XFILLER_2_147 VGND VGND VPWR VPWR sky130_fd_sc_hd__decap_3
XFILLER_2_136 VGND VGND VPWR VPWR sky130_fd_sc_hd__decap_3
XFILLER_2_103 VGND VGND VPWR VPWR sky130_fd_sc_hd__decap_3
XFILLER_9_15 VGND VGND VPWR VPWR sky130_fd_sc_hd__decap_3
XFILLER_9_48 VGND VGND VPWR VPWR sky130_fd_sc_hd__decap_3
XFILLER_6_442 VGND VGND VPWR VPWR sky130_fd_sc_hd__decap_3
XFILLER_1_180 VGND VGND VPWR VPWR sky130_fd_sc_hd__decap_3
XFILLER_11_268 VGND VGND VPWR VPWR sky130_fd_sc_hd__decap_3
XFILLER_3_423 VGND VGND VPWR VPWR sky130_fd_sc_hd__decap_3
XFILLER_7_206 VGND VGND VPWR VPWR sky130_fd_sc_hd__decap_3
XFILLER_7_228 VGND VGND VPWR VPWR sky130_fd_sc_hd__decap_3
X_041_ FrameStrobe[9] VGND VGND VPWR VPWR net52 sky130_fd_sc_hd__buf_1
XFILLER_1_60 VGND VGND VPWR VPWR sky130_fd_sc_hd__decap_3
XFILLER_1_93 VGND VGND VPWR VPWR sky130_fd_sc_hd__decap_3
XFILLER_4_209 VGND VGND VPWR VPWR sky130_fd_sc_hd__decap_3
XFILLER_6_16 VGND VGND VPWR VPWR sky130_fd_sc_hd__decap_3
XANTENNA_9 FrameData[27] VGND VGND VPWR VPWR sky130_fd_sc_hd__diode_2
XFILLER_10_91 VGND VGND VPWR VPWR sky130_fd_sc_hd__decap_3
XFILLER_3_220 VGND VGND VPWR VPWR sky130_fd_sc_hd__decap_3
XFILLER_3_231 VGND VGND VPWR VPWR sky130_fd_sc_hd__decap_3
XFILLER_3_264 VGND VGND VPWR VPWR sky130_fd_sc_hd__decap_3
X_024_ FrameData[24] VGND VGND VPWR VPWR net17 sky130_fd_sc_hd__clkbuf_1
XFILLER_6_38 VGND VGND VPWR VPWR sky130_fd_sc_hd__decap_3
XFILLER_3_297 VGND VGND VPWR VPWR sky130_fd_sc_hd__decap_3
XTAP_TAPCELL_ROW_6_81 VGND VPWR sky130_fd_sc_hd__tapvpwrvgnd_1
Xoutput35 net35 VGND VGND VPWR VPWR FrameStrobe_O[11] sky130_fd_sc_hd__buf_2
Xoutput46 net46 VGND VGND VPWR VPWR FrameStrobe_O[3] sky130_fd_sc_hd__buf_2
Xoutput24 net24 VGND VGND VPWR VPWR FrameData_O[30] sky130_fd_sc_hd__buf_2
Xoutput57 net57 VGND VGND VPWR VPWR S2BEG[0] sky130_fd_sc_hd__buf_2
Xoutput13 net13 VGND VGND VPWR VPWR FrameData_O[20] sky130_fd_sc_hd__buf_2
Xoutput79 net79 VGND VGND VPWR VPWR S4BEG[15] sky130_fd_sc_hd__buf_2
Xoutput68 net68 VGND VGND VPWR VPWR S2BEGb[3] sky130_fd_sc_hd__buf_2
XFILLER_8_301 VGND VGND VPWR VPWR sky130_fd_sc_hd__decap_3
XFILLER_8_312 VGND VGND VPWR VPWR sky130_fd_sc_hd__decap_3
XFILLER_8_356 VGND VGND VPWR VPWR sky130_fd_sc_hd__decap_3
XFILLER_8_389 VGND VGND VPWR VPWR sky130_fd_sc_hd__decap_3
X_007_ FrameData[7] VGND VGND VPWR VPWR net30 sky130_fd_sc_hd__clkbuf_1
XTAP_TAPCELL_ROW_9_109 VGND VPWR sky130_fd_sc_hd__tapvpwrvgnd_1
XFILLER_7_81 VGND VGND VPWR VPWR sky130_fd_sc_hd__decap_3
XFILLER_5_326 VGND VGND VPWR VPWR sky130_fd_sc_hd__decap_3
XFILLER_5_337 VGND VGND VPWR VPWR sky130_fd_sc_hd__decap_3
XFILLER_3_39 VGND VGND VPWR VPWR sky130_fd_sc_hd__decap_3
XTAP_TAPCELL_ROW_3_60 VGND VPWR sky130_fd_sc_hd__tapvpwrvgnd_1
XFILLER_8_153 VGND VGND VPWR VPWR sky130_fd_sc_hd__decap_3
XFILLER_8_186 VGND VGND VPWR VPWR sky130_fd_sc_hd__decap_3
XFILLER_8_197 VGND VGND VPWR VPWR sky130_fd_sc_hd__decap_3
XFILLER_4_392 VGND VGND VPWR VPWR sky130_fd_sc_hd__decap_3
XFILLER_10_108 VGND VGND VPWR VPWR sky130_fd_sc_hd__decap_3
XFILLER_2_318 VGND VGND VPWR VPWR sky130_fd_sc_hd__decap_3
XFILLER_5_9 VGND VGND VPWR VPWR sky130_fd_sc_hd__decap_3
XTAP_TAPCELL_ROW_11_125 VGND VPWR sky130_fd_sc_hd__tapvpwrvgnd_1
XFILLER_5_134 VGND VGND VPWR VPWR sky130_fd_sc_hd__decap_3
XFILLER_5_178 VGND VGND VPWR VPWR sky130_fd_sc_hd__decap_3
XFILLER_1_373 VGND VGND VPWR VPWR sky130_fd_sc_hd__decap_3
XFILLER_1_340 VGND VGND VPWR VPWR sky130_fd_sc_hd__decap_3
XFILLER_4_71 VGND VGND VPWR VPWR sky130_fd_sc_hd__decap_3
XFILLER_11_406 VGND VGND VPWR VPWR sky130_fd_sc_hd__decap_3
XFILLER_2_159 VGND VGND VPWR VPWR sky130_fd_sc_hd__decap_3
XFILLER_2_115 VGND VGND VPWR VPWR sky130_fd_sc_hd__decap_3
XFILLER_3_6 VGND VGND VPWR VPWR sky130_fd_sc_hd__decap_3
XFILLER_0_29 VGND VGND VPWR VPWR sky130_fd_sc_hd__decap_3
XFILLER_6_410 VGND VGND VPWR VPWR sky130_fd_sc_hd__decap_3
XFILLER_9_27 VGND VGND VPWR VPWR sky130_fd_sc_hd__decap_3
XFILLER_6_421 VGND VGND VPWR VPWR sky130_fd_sc_hd__decap_3
XFILLER_6_454 VGND VGND VPWR VPWR sky130_fd_sc_hd__decap_3
XFILLER_1_192 VGND VGND VPWR VPWR sky130_fd_sc_hd__decap_3
XFILLER_9_281 VGND VGND VPWR VPWR sky130_fd_sc_hd__decap_3
XFILLER_9_270 VGND VGND VPWR VPWR sky130_fd_sc_hd__fill_2
XFILLER_11_225 VGND VGND VPWR VPWR sky130_fd_sc_hd__decap_3
XFILLER_11_203 VGND VGND VPWR VPWR sky130_fd_sc_hd__decap_3
XFILLER_7_218 VGND VGND VPWR VPWR sky130_fd_sc_hd__decap_3
XFILLER_1_3 VGND VGND VPWR VPWR sky130_fd_sc_hd__decap_3
XFILLER_3_402 VGND VGND VPWR VPWR sky130_fd_sc_hd__decap_3
XFILLER_3_435 VGND VGND VPWR VPWR sky130_fd_sc_hd__decap_3
X_040_ FrameStrobe[8] VGND VGND VPWR VPWR net51 sky130_fd_sc_hd__buf_1
XFILLER_10_280 VGND VGND VPWR VPWR sky130_fd_sc_hd__decap_3
XFILLER_6_240 VGND VGND VPWR VPWR sky130_fd_sc_hd__decap_3
XFILLER_6_262 VGND VGND VPWR VPWR sky130_fd_sc_hd__decap_3
XFILLER_6_284 VGND VGND VPWR VPWR sky130_fd_sc_hd__decap_3
XFILLER_1_72 VGND VGND VPWR VPWR sky130_fd_sc_hd__decap_3
XFILLER_0_427 VGND VGND VPWR VPWR sky130_fd_sc_hd__decap_3
XFILLER_0_416 VGND VGND VPWR VPWR sky130_fd_sc_hd__decap_3
X_023_ FrameData[23] VGND VGND VPWR VPWR net16 sky130_fd_sc_hd__clkbuf_2
XFILLER_10_81 VGND VGND VPWR VPWR sky130_fd_sc_hd__decap_3
XFILLER_3_243 VGND VGND VPWR VPWR sky130_fd_sc_hd__decap_3
XFILLER_3_276 VGND VGND VPWR VPWR sky130_fd_sc_hd__decap_3
XTAP_TAPCELL_ROW_6_82 VGND VPWR sky130_fd_sc_hd__tapvpwrvgnd_1
Xoutput36 net36 VGND VGND VPWR VPWR FrameStrobe_O[12] sky130_fd_sc_hd__buf_2
Xoutput47 net47 VGND VGND VPWR VPWR FrameStrobe_O[4] sky130_fd_sc_hd__buf_2
Xoutput25 net25 VGND VGND VPWR VPWR FrameData_O[31] sky130_fd_sc_hd__buf_2
Xoutput69 net69 VGND VGND VPWR VPWR S2BEGb[4] sky130_fd_sc_hd__buf_2
Xoutput58 net58 VGND VGND VPWR VPWR S2BEG[1] sky130_fd_sc_hd__buf_2
Xoutput14 net14 VGND VGND VPWR VPWR FrameData_O[21] sky130_fd_sc_hd__buf_2
X_006_ FrameData[6] VGND VGND VPWR VPWR net29 sky130_fd_sc_hd__clkbuf_1
XFILLER_8_324 VGND VGND VPWR VPWR sky130_fd_sc_hd__decap_3
XFILLER_8_335 VGND VGND VPWR VPWR sky130_fd_sc_hd__decap_3
XFILLER_8_368 VGND VGND VPWR VPWR sky130_fd_sc_hd__decap_3
XFILLER_7_60 VGND VGND VPWR VPWR sky130_fd_sc_hd__decap_3
XFILLER_7_93 VGND VGND VPWR VPWR sky130_fd_sc_hd__decap_3
XFILLER_5_305 VGND VGND VPWR VPWR sky130_fd_sc_hd__decap_3
XFILLER_5_349 VGND VGND VPWR VPWR sky130_fd_sc_hd__decap_3
XFILLER_3_18 VGND VGND VPWR VPWR sky130_fd_sc_hd__decap_3
XFILLER_8_121 VGND VGND VPWR VPWR sky130_fd_sc_hd__decap_3
XTAP_TAPCELL_ROW_3_61 VGND VPWR sky130_fd_sc_hd__tapvpwrvgnd_1
XFILLER_4_360 VGND VGND VPWR VPWR sky130_fd_sc_hd__decap_3
XFILLER_4_371 VGND VGND VPWR VPWR sky130_fd_sc_hd__decap_3
XFILLER_8_165 VGND VGND VPWR VPWR sky130_fd_sc_hd__decap_3
XTAP_TAPCELL_ROW_11_126 VGND VPWR sky130_fd_sc_hd__tapvpwrvgnd_1
XFILLER_5_102 VGND VGND VPWR VPWR sky130_fd_sc_hd__decap_3
XFILLER_5_113 VGND VGND VPWR VPWR sky130_fd_sc_hd__decap_3
XFILLER_5_146 VGND VGND VPWR VPWR sky130_fd_sc_hd__decap_3
XFILLER_1_396 VGND VGND VPWR VPWR sky130_fd_sc_hd__decap_3
XFILLER_1_352 VGND VGND VPWR VPWR sky130_fd_sc_hd__fill_2
XFILLER_9_452 VGND VGND VPWR VPWR sky130_fd_sc_hd__decap_3
XFILLER_4_50 VGND VGND VPWR VPWR sky130_fd_sc_hd__decap_3
XFILLER_4_83 VGND VGND VPWR VPWR sky130_fd_sc_hd__fill_1
XFILLER_4_94 VGND VGND VPWR VPWR sky130_fd_sc_hd__decap_3
XFILLER_4_190 VGND VGND VPWR VPWR sky130_fd_sc_hd__decap_3
XFILLER_11_429 VGND VGND VPWR VPWR sky130_fd_sc_hd__decap_3
XFILLER_11_418 VGND VGND VPWR VPWR sky130_fd_sc_hd__fill_2
XFILLER_2_127 VGND VGND VPWR VPWR sky130_fd_sc_hd__decap_3
XFILLER_0_19 VGND VGND VPWR VPWR sky130_fd_sc_hd__decap_3
XFILLER_6_433 VGND VGND VPWR VPWR sky130_fd_sc_hd__decap_3
XFILLER_9_39 VGND VGND VPWR VPWR sky130_fd_sc_hd__decap_3
XFILLER_9_293 VGND VGND VPWR VPWR sky130_fd_sc_hd__decap_3
XFILLER_11_259 VGND VGND VPWR VPWR sky130_fd_sc_hd__fill_2
XFILLER_11_248 VGND VGND VPWR VPWR sky130_fd_sc_hd__decap_3
XFILLER_11_237 VGND VGND VPWR VPWR sky130_fd_sc_hd__fill_1
XFILLER_3_414 VGND VGND VPWR VPWR sky130_fd_sc_hd__decap_3
XFILLER_3_447 VGND VGND VPWR VPWR sky130_fd_sc_hd__fill_1
XFILLER_10_292 VGND VGND VPWR VPWR sky130_fd_sc_hd__decap_3
XFILLER_6_230 VGND VGND VPWR VPWR sky130_fd_sc_hd__fill_1
XFILLER_6_274 VGND VGND VPWR VPWR sky130_fd_sc_hd__decap_3
XFILLER_6_296 VGND VGND VPWR VPWR sky130_fd_sc_hd__decap_3
X_099_ NN4END[4] VGND VGND VPWR VPWR net91 sky130_fd_sc_hd__buf_1
XFILLER_1_51 VGND VGND VPWR VPWR sky130_fd_sc_hd__decap_3
XFILLER_1_84 VGND VGND VPWR VPWR sky130_fd_sc_hd__decap_3
XFILLER_0_439 VGND VGND VPWR VPWR sky130_fd_sc_hd__decap_3
XFILLER_3_211 VGND VGND VPWR VPWR sky130_fd_sc_hd__decap_3
X_022_ FrameData[22] VGND VGND VPWR VPWR net15 sky130_fd_sc_hd__clkbuf_1
XFILLER_6_29 VGND VGND VPWR VPWR sky130_fd_sc_hd__decap_3
XFILLER_10_60 VGND VGND VPWR VPWR sky130_fd_sc_hd__decap_3
XFILLER_3_255 VGND VGND VPWR VPWR sky130_fd_sc_hd__decap_3
XFILLER_3_288 VGND VGND VPWR VPWR sky130_fd_sc_hd__decap_3
XTAP_TAPCELL_ROW_6_83 VGND VPWR sky130_fd_sc_hd__tapvpwrvgnd_1
Xoutput37 net37 VGND VGND VPWR VPWR FrameStrobe_O[13] sky130_fd_sc_hd__buf_2
Xoutput48 net48 VGND VGND VPWR VPWR FrameStrobe_O[5] sky130_fd_sc_hd__buf_2
Xoutput15 net15 VGND VGND VPWR VPWR FrameData_O[22] sky130_fd_sc_hd__buf_2