*SPEF "ieee 1481-1999"
*DESIGN "N_term_single"
*DATE "08:01:23 Friday May 09, 2025"
*VENDOR "The OpenROAD Project"
*PROGRAM "OpenROAD"
*VERSION "87af90f72f3f9be1fdfa1d886f0dd8d8b8f34694"
*DESIGN_FLOW "NAME_SCOPE LOCAL" "PIN_CAP NONE"
*DIVIDER /
*DELIMITER :
*BUS_DELIMITER []
*T_UNIT 1 NS
*C_UNIT 1 PF
*R_UNIT 1 OHM
*L_UNIT 1 HENRY

*NAME_MAP
*1 Ci
*2 FrameData[0]
*3 FrameData[10]
*4 FrameData[11]
*5 FrameData[12]
*6 FrameData[13]
*7 FrameData[14]
*8 FrameData[15]
*9 FrameData[16]
*10 FrameData[17]
*11 FrameData[18]
*12 FrameData[19]
*13 FrameData[1]
*14 FrameData[20]
*15 FrameData[21]
*16 FrameData[22]
*17 FrameData[23]
*18 FrameData[24]
*19 FrameData[25]
*20 FrameData[26]
*21 FrameData[27]
*22 FrameData[28]
*23 FrameData[29]
*24 FrameData[2]
*25 FrameData[30]
*26 FrameData[31]
*27 FrameData[3]
*28 FrameData[4]
*29 FrameData[5]
*30 FrameData[6]
*31 FrameData[7]
*32 FrameData[8]
*33 FrameData[9]
*34 FrameData_O[0]
*35 FrameData_O[10]
*36 FrameData_O[11]
*37 FrameData_O[12]
*38 FrameData_O[13]
*39 FrameData_O[14]
*40 FrameData_O[15]
*41 FrameData_O[16]
*42 FrameData_O[17]
*43 FrameData_O[18]
*44 FrameData_O[19]
*45 FrameData_O[1]
*46 FrameData_O[20]
*47 FrameData_O[21]
*48 FrameData_O[22]
*49 FrameData_O[23]
*50 FrameData_O[24]
*51 FrameData_O[25]
*52 FrameData_O[26]
*53 FrameData_O[27]
*54 FrameData_O[28]
*55 FrameData_O[29]
*56 FrameData_O[2]
*57 FrameData_O[30]
*58 FrameData_O[31]
*59 FrameData_O[3]
*60 FrameData_O[4]
*61 FrameData_O[5]
*62 FrameData_O[6]
*63 FrameData_O[7]
*64 FrameData_O[8]
*65 FrameData_O[9]
*66 FrameStrobe[0]
*67 FrameStrobe[10]
*68 FrameStrobe[11]
*69 FrameStrobe[12]
*70 FrameStrobe[13]
*71 FrameStrobe[14]
*72 FrameStrobe[15]
*73 FrameStrobe[16]
*74 FrameStrobe[17]
*75 FrameStrobe[18]
*76 FrameStrobe[19]
*77 FrameStrobe[1]
*78 FrameStrobe[2]
*79 FrameStrobe[3]
*80 FrameStrobe[4]
*81 FrameStrobe[5]
*82 FrameStrobe[6]
*83 FrameStrobe[7]
*84 FrameStrobe[8]
*85 FrameStrobe[9]
*86 FrameStrobe_O[0]
*87 FrameStrobe_O[10]
*88 FrameStrobe_O[11]
*89 FrameStrobe_O[12]
*90 FrameStrobe_O[13]
*91 FrameStrobe_O[14]
*92 FrameStrobe_O[15]
*93 FrameStrobe_O[16]
*94 FrameStrobe_O[17]
*95 FrameStrobe_O[18]
*96 FrameStrobe_O[19]
*97 FrameStrobe_O[1]
*98 FrameStrobe_O[2]
*99 FrameStrobe_O[3]
*100 FrameStrobe_O[4]
*101 FrameStrobe_O[5]
*102 FrameStrobe_O[6]
*103 FrameStrobe_O[7]
*104 FrameStrobe_O[8]
*105 FrameStrobe_O[9]
*106 N1END[0]
*107 N1END[1]
*108 N1END[2]
*109 N1END[3]
*110 N2END[0]
*111 N2END[1]
*112 N2END[2]
*113 N2END[3]
*114 N2END[4]
*115 N2END[5]
*116 N2END[6]
*117 N2END[7]
*118 N2MID[0]
*119 N2MID[1]
*120 N2MID[2]
*121 N2MID[3]
*122 N2MID[4]
*123 N2MID[5]
*124 N2MID[6]
*125 N2MID[7]
*126 N4END[0]
*127 N4END[10]
*128 N4END[11]
*129 N4END[12]
*130 N4END[13]
*131 N4END[14]
*132 N4END[15]
*133 N4END[1]
*134 N4END[2]
*135 N4END[3]
*136 N4END[4]
*137 N4END[5]
*138 N4END[6]
*139 N4END[7]
*140 N4END[8]
*141 N4END[9]
*142 NN4END[0]
*143 NN4END[10]
*144 NN4END[11]
*145 NN4END[12]
*146 NN4END[13]
*147 NN4END[14]
*148 NN4END[15]
*149 NN4END[1]
*150 NN4END[2]
*151 NN4END[3]
*152 NN4END[4]
*153 NN4END[5]
*154 NN4END[6]
*155 NN4END[7]
*156 NN4END[8]
*157 NN4END[9]
*158 S1BEG[0]
*159 S1BEG[1]
*160 S1BEG[2]
*161 S1BEG[3]
*162 S2BEG[0]
*163 S2BEG[1]
*164 S2BEG[2]
*165 S2BEG[3]
*166 S2BEG[4]
*167 S2BEG[5]
*168 S2BEG[6]
*169 S2BEG[7]
*170 S2BEGb[0]
*171 S2BEGb[1]
*172 S2BEGb[2]
*173 S2BEGb[3]
*174 S2BEGb[4]
*175 S2BEGb[5]
*176 S2BEGb[6]
*177 S2BEGb[7]
*178 S4BEG[0]
*179 S4BEG[10]
*180 S4BEG[11]
*181 S4BEG[12]
*182 S4BEG[13]
*183 S4BEG[14]
*184 S4BEG[15]
*185 S4BEG[1]
*186 S4BEG[2]
*187 S4BEG[3]
*188 S4BEG[4]
*189 S4BEG[5]
*190 S4BEG[6]
*191 S4BEG[7]
*192 S4BEG[8]
*193 S4BEG[9]
*194 SS4BEG[0]
*195 SS4BEG[10]
*196 SS4BEG[11]
*197 SS4BEG[12]
*198 SS4BEG[13]
*199 SS4BEG[14]
*200 SS4BEG[15]
*201 SS4BEG[1]
*202 SS4BEG[2]
*203 SS4BEG[3]
*204 SS4BEG[4]
*205 SS4BEG[5]
*206 SS4BEG[6]
*207 SS4BEG[7]
*208 SS4BEG[8]
*209 SS4BEG[9]
*210 UserCLK
*211 UserCLKo
*214 net1
*215 net10
*216 net100
*217 net101
*218 net102
*219 net103
*220 net104
*221 net105
*222 net11
*223 net12
*224 net13
*225 net14
*226 net15
*227 net16
*228 net17
*229 net18
*230 net19
*231 net2
*232 net20
*233 net21
*234 net22
*235 net23
*236 net24
*237 net25
*238 net26
*239 net27
*240 net28
*241 net29
*242 net3
*243 net30
*244 net31
*245 net32
*246 net33
*247 net34
*248 net35
*249 net36
*250 net37
*251 net38
*252 net39
*253 net4
*254 net40
*255 net41
*256 net42
*257 net43
*258 net44
*259 net45
*260 net46
*261 net47
*262 net48
*263 net49
*264 net5
*265 net50
*266 net51
*267 net52
*268 net53
*269 net54
*270 net55
*271 net56
*272 net57
*273 net58
*274 net59
*275 net6
*276 net60
*277 net61
*278 net62
*279 net63
*280 net64
*281 net65
*282 net66
*283 net67
*284 net68
*285 net69
*286 net7
*287 net70
*288 net71
*289 net72
*290 net73
*291 net74
*292 net75
*293 net76
*294 net77
*295 net78
*296 net79
*297 net8
*298 net80
*299 net81
*300 net82
*301 net83
*302 net84
*303 net85
*304 net86
*305 net87
*306 net88
*307 net89
*308 net9
*309 net90
*310 net91
*311 net92
*312 net93
*313 net94
*314 net95
*315 net96
*316 net97
*317 net98
*318 net99
*319 ANTENNA_1
*320 ANTENNA_10
*321 ANTENNA_11
*322 ANTENNA_12
*323 ANTENNA_13
*324 ANTENNA_14
*325 ANTENNA_15
*326 ANTENNA_16
*327 ANTENNA_17
*328 ANTENNA_18
*329 ANTENNA_19
*330 ANTENNA_2
*331 ANTENNA_20
*332 ANTENNA_21
*333 ANTENNA_22
*334 ANTENNA_23
*335 ANTENNA_24
*336 ANTENNA_25
*337 ANTENNA_26
*338 ANTENNA_27
*339 ANTENNA_28
*340 ANTENNA_29
*341 ANTENNA_3
*342 ANTENNA_30
*343 ANTENNA_31
*344 ANTENNA_32
*345 ANTENNA_33
*346 ANTENNA_34
*347 ANTENNA_35
*348 ANTENNA_4
*349 ANTENNA_5
*350 ANTENNA_6
*351 ANTENNA_7
*352 ANTENNA_8
*353 ANTENNA_9
*354 FILLER_0_100
*355 FILLER_0_103
*356 FILLER_0_106
*357 FILLER_0_109
*358 FILLER_0_113
*359 FILLER_0_116
*360 FILLER_0_119
*361 FILLER_0_12
*362 FILLER_0_122
*363 FILLER_0_125
*364 FILLER_0_128
*365 FILLER_0_131
*366 FILLER_0_134
*367 FILLER_0_137
*368 FILLER_0_141
*369 FILLER_0_144
*370 FILLER_0_147
*371 FILLER_0_15
*372 FILLER_0_169
*373 FILLER_0_18
*374 FILLER_0_21
*375 FILLER_0_221
*376 FILLER_0_24
*377 FILLER_0_249
*378 FILLER_0_27
*379 FILLER_0_273
*380 FILLER_0_276
*381 FILLER_0_279
*382 FILLER_0_281
*383 FILLER_0_284
*384 FILLER_0_287
*385 FILLER_0_29
*386 FILLER_0_290
*387 FILLER_0_293
*388 FILLER_0_296
*389 FILLER_0_299
*390 FILLER_0_3
*391 FILLER_0_302
*392 FILLER_0_305
*393 FILLER_0_309
*394 FILLER_0_312
*395 FILLER_0_315
*396 FILLER_0_318
*397 FILLER_0_32
*398 FILLER_0_321
*399 FILLER_0_337
*400 FILLER_0_35
*401 FILLER_0_38
*402 FILLER_0_41
*403 FILLER_0_44
*404 FILLER_0_47
*405 FILLER_0_50
*406 FILLER_0_53
*407 FILLER_0_57
*408 FILLER_0_6
*409 FILLER_0_60
*410 FILLER_0_63
*411 FILLER_0_66
*412 FILLER_0_69
*413 FILLER_0_72
*414 FILLER_0_75
*415 FILLER_0_78
*416 FILLER_0_81
*417 FILLER_0_85
*418 FILLER_0_88
*419 FILLER_0_9
*420 FILLER_0_91
*421 FILLER_0_94
*422 FILLER_0_97
*423 FILLER_10_100
*424 FILLER_10_103
*425 FILLER_10_106
*426 FILLER_10_109
*427 FILLER_10_112
*428 FILLER_10_115
*429 FILLER_10_118
*430 FILLER_10_12
*431 FILLER_10_121
*432 FILLER_10_124
*433 FILLER_10_127
*434 FILLER_10_130
*435 FILLER_10_133
*436 FILLER_10_136
*437 FILLER_10_139
*438 FILLER_10_141
*439 FILLER_10_144
*440 FILLER_10_147
*441 FILLER_10_15
*442 FILLER_10_150
*443 FILLER_10_153
*444 FILLER_10_156
*445 FILLER_10_159
*446 FILLER_10_162
*447 FILLER_10_165
*448 FILLER_10_168
*449 FILLER_10_171
*450 FILLER_10_174
*451 FILLER_10_177
*452 FILLER_10_18
*453 FILLER_10_180
*454 FILLER_10_183
*455 FILLER_10_186
*456 FILLER_10_189
*457 FILLER_10_192
*458 FILLER_10_195
*459 FILLER_10_197
*460 FILLER_10_200
*461 FILLER_10_203
*462 FILLER_10_206
*463 FILLER_10_209
*464 FILLER_10_21
*465 FILLER_10_212
*466 FILLER_10_215
*467 FILLER_10_218
*468 FILLER_10_221
*469 FILLER_10_224
*470 FILLER_10_227
*471 FILLER_10_230
*472 FILLER_10_233
*473 FILLER_10_236
*474 FILLER_10_239
*475 FILLER_10_24
*476 FILLER_10_242
*477 FILLER_10_245
*478 FILLER_10_248
*479 FILLER_10_251
*480 FILLER_10_253
*481 FILLER_10_256
*482 FILLER_10_259
*483 FILLER_10_262
*484 FILLER_10_265
*485 FILLER_10_268
*486 FILLER_10_27
*487 FILLER_10_271
*488 FILLER_10_274
*489 FILLER_10_277
*490 FILLER_10_280
*491 FILLER_10_283
*492 FILLER_10_286
*493 FILLER_10_289
*494 FILLER_10_29
*495 FILLER_10_292
*496 FILLER_10_295
*497 FILLER_10_298
*498 FILLER_10_3
*499 FILLER_10_301
*500 FILLER_10_304
*501 FILLER_10_307
*502 FILLER_10_309
*503 FILLER_10_312
*504 FILLER_10_315
*505 FILLER_10_318
*506 FILLER_10_32
*507 FILLER_10_321
*508 FILLER_10_324
*509 FILLER_10_35
*510 FILLER_10_38
*511 FILLER_10_41
*512 FILLER_10_44
*513 FILLER_10_47
*514 FILLER_10_50
*515 FILLER_10_53
*516 FILLER_10_56
*517 FILLER_10_59
*518 FILLER_10_6
*519 FILLER_10_62
*520 FILLER_10_65
*521 FILLER_10_68
*522 FILLER_10_71
*523 FILLER_10_74
*524 FILLER_10_77
*525 FILLER_10_80
*526 FILLER_10_83
*527 FILLER_10_85
*528 FILLER_10_88
*529 FILLER_10_9
*530 FILLER_10_91
*531 FILLER_10_94
*532 FILLER_10_97
*533 FILLER_11_100
*534 FILLER_11_103
*535 FILLER_11_106
*536 FILLER_11_11
*537 FILLER_11_111
*538 FILLER_11_113
*539 FILLER_11_116
*540 FILLER_11_119
*541 FILLER_11_122
*542 FILLER_11_128
*543 FILLER_11_131
*544 FILLER_11_134
*545 FILLER_11_137
*546 FILLER_11_14
*547 FILLER_11_145
*548 FILLER_11_148
*549 FILLER_11_151
*550 FILLER_11_154
*551 FILLER_11_157
*552 FILLER_11_162
*553 FILLER_11_165
*554 FILLER_11_169
*555 FILLER_11_17
*556 FILLER_11_172
*557 FILLER_11_179
*558 FILLER_11_182
*559 FILLER_11_185
*560 FILLER_11_188
*561 FILLER_11_191
*562 FILLER_11_197
*563 FILLER_11_20
*564 FILLER_11_200
*565 FILLER_11_203
*566 FILLER_11_206
*567 FILLER_11_213
*568 FILLER_11_216
*569 FILLER_11_219
*570 FILLER_11_222
*571 FILLER_11_225
*572 FILLER_11_230
*573 FILLER_11_233
*574 FILLER_11_236
*575 FILLER_11_239
*576 FILLER_11_242
*577 FILLER_11_247
*578 FILLER_11_250
*579 FILLER_11_253
*580 FILLER_11_256
*581 FILLER_11_259
*582 FILLER_11_26
*583 FILLER_11_264
*584 FILLER_11_267
*585 FILLER_11_270
*586 FILLER_11_273
*587 FILLER_11_276
*588 FILLER_11_279
*589 FILLER_11_285
*590 FILLER_11_288
*591 FILLER_11_29
*592 FILLER_11_291
*593 FILLER_11_298
*594 FILLER_11_3
*595 FILLER_11_301
*596 FILLER_11_304
*597 FILLER_11_307
*598 FILLER_11_309
*599 FILLER_11_315
*600 FILLER_11_318
*601 FILLER_11_32
*602 FILLER_11_321
*603 FILLER_11_337
*604 FILLER_11_35
*605 FILLER_11_38
*606 FILLER_11_43
*607 FILLER_11_46
*608 FILLER_11_49
*609 FILLER_11_52
*610 FILLER_11_55
*611 FILLER_11_61
*612 FILLER_11_64
*613 FILLER_11_67
*614 FILLER_11_70
*615 FILLER_11_77
*616 FILLER_11_8
*617 FILLER_11_80
*618 FILLER_11_83
*619 FILLER_11_85
*620 FILLER_11_88
*621 FILLER_11_94
*622 FILLER_11_97
*623 FILLER_1_102
*624 FILLER_1_105
*625 FILLER_1_108
*626 FILLER_1_111
*627 FILLER_1_113
*628 FILLER_1_116
*629 FILLER_1_119
*630 FILLER_1_12
*631 FILLER_1_122
*632 FILLER_1_125
*633 FILLER_1_128
*634 FILLER_1_131
*635 FILLER_1_134
*636 FILLER_1_137
*637 FILLER_1_140
*638 FILLER_1_143
*639 FILLER_1_146
*640 FILLER_1_149
*641 FILLER_1_15
*642 FILLER_1_152
*643 FILLER_1_155
*644 FILLER_1_169
*645 FILLER_1_18
*646 FILLER_1_182
*647 FILLER_1_185
*648 FILLER_1_188
*649 FILLER_1_191
*650 FILLER_1_21
*651 FILLER_1_222
*652 FILLER_1_24
*653 FILLER_1_269
*654 FILLER_1_27
*655 FILLER_1_272
*656 FILLER_1_275
*657 FILLER_1_278
*658 FILLER_1_281
*659 FILLER_1_284
*660 FILLER_1_287
*661 FILLER_1_291
*662 FILLER_1_294
*663 FILLER_1_297
*664 FILLER_1_3
*665 FILLER_1_30
*666 FILLER_1_300
*667 FILLER_1_303
*668 FILLER_1_306
*669 FILLER_1_309
*670 FILLER_1_312
*671 FILLER_1_315
*672 FILLER_1_318
*673 FILLER_1_321
*674 FILLER_1_324
*675 FILLER_1_327
*676 FILLER_1_33
*677 FILLER_1_330
*678 FILLER_1_337
*679 FILLER_1_36
*680 FILLER_1_39
*681 FILLER_1_42
*682 FILLER_1_45
*683 FILLER_1_48
*684 FILLER_1_51
*685 FILLER_1_54
*686 FILLER_1_57
*687 FILLER_1_6
*688 FILLER_1_60
*689 FILLER_1_63
*690 FILLER_1_66
*691 FILLER_1_69
*692 FILLER_1_72
*693 FILLER_1_75
*694 FILLER_1_78
*695 FILLER_1_81
*696 FILLER_1_84
*697 FILLER_1_87
*698 FILLER_1_9
*699 FILLER_1_90
*700 FILLER_1_93
*701 FILLER_1_96
*702 FILLER_1_99
*703 FILLER_2_100
*704 FILLER_2_103
*705 FILLER_2_106
*706 FILLER_2_109
*707 FILLER_2_112
*708 FILLER_2_115
*709 FILLER_2_118
*710 FILLER_2_12
*711 FILLER_2_121
*712 FILLER_2_124
*713 FILLER_2_127
*714 FILLER_2_130
*715 FILLER_2_133
*716 FILLER_2_136
*717 FILLER_2_139
*718 FILLER_2_141
*719 FILLER_2_144
*720 FILLER_2_147
*721 FILLER_2_150
*722 FILLER_2_153
*723 FILLER_2_156
*724 FILLER_2_159
*725 FILLER_2_16
*726 FILLER_2_162
*727 FILLER_2_165
*728 FILLER_2_168
*729 FILLER_2_171
*730 FILLER_2_174
*731 FILLER_2_177
*732 FILLER_2_180
*733 FILLER_2_186
*734 FILLER_2_189
*735 FILLER_2_19
*736 FILLER_2_192
*737 FILLER_2_195
*738 FILLER_2_202
*739 FILLER_2_205
*740 FILLER_2_208
*741 FILLER_2_211
*742 FILLER_2_22
*743 FILLER_2_232
*744 FILLER_2_235
*745 FILLER_2_238
*746 FILLER_2_241
*747 FILLER_2_25
*748 FILLER_2_251
*749 FILLER_2_266
*750 FILLER_2_269
*751 FILLER_2_272
*752 FILLER_2_281
*753 FILLER_2_29
*754 FILLER_2_3
*755 FILLER_2_300
*756 FILLER_2_303
*757 FILLER_2_306
*758 FILLER_2_309
*759 FILLER_2_312
*760 FILLER_2_315
*761 FILLER_2_318
*762 FILLER_2_32
*763 FILLER_2_321
*764 FILLER_2_324
*765 FILLER_2_327
*766 FILLER_2_330
*767 FILLER_2_333
*768 FILLER_2_336
*769 FILLER_2_35
*770 FILLER_2_38
*771 FILLER_2_41
*772 FILLER_2_44
*773 FILLER_2_47
*774 FILLER_2_50
*775 FILLER_2_53
*776 FILLER_2_56
*777 FILLER_2_59
*778 FILLER_2_6
*779 FILLER_2_62
*780 FILLER_2_65
*781 FILLER_2_69
*782 FILLER_2_72
*783 FILLER_2_75
*784 FILLER_2_78
*785 FILLER_2_81
*786 FILLER_2_85
*787 FILLER_2_88
*788 FILLER_2_9
*789 FILLER_2_91
*790 FILLER_2_94
*791 FILLER_2_97
*792 FILLER_3_101
*793 FILLER_3_104
*794 FILLER_3_107
*795 FILLER_3_110
*796 FILLER_3_113
*797 FILLER_3_116
*798 FILLER_3_119
*799 FILLER_3_122
*800 FILLER_3_125
*801 FILLER_3_128
*802 FILLER_3_131
*803 FILLER_3_134
*804 FILLER_3_137
*805 FILLER_3_143
*806 FILLER_3_148
*807 FILLER_3_151
*808 FILLER_3_158
*809 FILLER_3_161
*810 FILLER_3_164
*811 FILLER_3_167
*812 FILLER_3_169
*813 FILLER_3_172
*814 FILLER_3_175
*815 FILLER_3_178
*816 FILLER_3_18
*817 FILLER_3_181
*818 FILLER_3_184
*819 FILLER_3_187
*820 FILLER_3_190
*821 FILLER_3_193
*822 FILLER_3_196
*823 FILLER_3_199
*824 FILLER_3_202
*825 FILLER_3_205
*826 FILLER_3_208
*827 FILLER_3_211
*828 FILLER_3_214
*829 FILLER_3_217
*830 FILLER_3_220
*831 FILLER_3_223
*832 FILLER_3_225
*833 FILLER_3_228
*834 FILLER_3_23
*835 FILLER_3_231
*836 FILLER_3_234
*837 FILLER_3_237
*838 FILLER_3_240
*839 FILLER_3_243
*840 FILLER_3_246
*841 FILLER_3_249
*842 FILLER_3_252
*843 FILLER_3_255
*844 FILLER_3_258
*845 FILLER_3_261
*846 FILLER_3_264
*847 FILLER_3_267
*848 FILLER_3_270
*849 FILLER_3_273
*850 FILLER_3_276
*851 FILLER_3_279
*852 FILLER_3_284
*853 FILLER_3_296
*854 FILLER_3_3
*855 FILLER_3_31
*856 FILLER_3_310
*857 FILLER_3_313
*858 FILLER_3_316
*859 FILLER_3_319
*860 FILLER_3_322
*861 FILLER_3_325
*862 FILLER_3_328
*863 FILLER_3_331
*864 FILLER_3_334
*865 FILLER_3_337
*866 FILLER_3_37
*867 FILLER_3_41
*868 FILLER_3_44
*869 FILLER_3_47
*870 FILLER_3_50
*871 FILLER_3_53
*872 FILLER_3_57
*873 FILLER_3_6
*874 FILLER_3_77
*875 FILLER_3_80
*876 FILLER_3_83
*877 FILLER_3_86
*878 FILLER_3_89
*879 FILLER_3_92
*880 FILLER_3_95
*881 FILLER_3_98
*882 FILLER_4_100
*883 FILLER_4_103
*884 FILLER_4_12
*885 FILLER_4_120
*886 FILLER_4_127
*887 FILLER_4_139
*888 FILLER_4_141
*889 FILLER_4_144
*890 FILLER_4_147
*891 FILLER_4_15
*892 FILLER_4_169
*893 FILLER_4_172
*894 FILLER_4_175
*895 FILLER_4_178
*896 FILLER_4_18
*897 FILLER_4_181
*898 FILLER_4_184
*899 FILLER_4_187
*900 FILLER_4_190
*901 FILLER_4_193
*902 FILLER_4_197
*903 FILLER_4_200
*904 FILLER_4_203
*905 FILLER_4_206
*906 FILLER_4_209
*907 FILLER_4_212
*908 FILLER_4_215
*909 FILLER_4_218
*910 FILLER_4_221
*911 FILLER_4_224
*912 FILLER_4_227
*913 FILLER_4_230
*914 FILLER_4_233
*915 FILLER_4_236
*916 FILLER_4_239
*917 FILLER_4_242
*918 FILLER_4_245
*919 FILLER_4_248
*920 FILLER_4_251
*921 FILLER_4_253
*922 FILLER_4_256
*923 FILLER_4_259
*924 FILLER_4_26
*925 FILLER_4_262
*926 FILLER_4_265
*927 FILLER_4_268
*928 FILLER_4_271
*929 FILLER_4_274
*930 FILLER_4_277
*931 FILLER_4_280
*932 FILLER_4_283
*933 FILLER_4_286
*934 FILLER_4_294
*935 FILLER_4_3
*936 FILLER_4_303
*937 FILLER_4_306
*938 FILLER_4_309
*939 FILLER_4_312
*940 FILLER_4_315
*941 FILLER_4_318
*942 FILLER_4_32
*943 FILLER_4_321
*944 FILLER_4_324
*945 FILLER_4_327
*946 FILLER_4_330
*947 FILLER_4_333
*948 FILLER_4_336
*949 FILLER_4_35
*950 FILLER_4_38
*951 FILLER_4_41
*952 FILLER_4_44
*953 FILLER_4_47
*954 FILLER_4_50
*955 FILLER_4_53
*956 FILLER_4_56
*957 FILLER_4_59
*958 FILLER_4_6
*959 FILLER_4_62
*960 FILLER_4_65
*961 FILLER_4_69
*962 FILLER_4_72
*963 FILLER_4_75
*964 FILLER_4_78
*965 FILLER_4_81
*966 FILLER_4_85
*967 FILLER_4_88
*968 FILLER_4_9
*969 FILLER_4_91
*970 FILLER_4_94
*971 FILLER_4_97
*972 FILLER_5_102
*973 FILLER_5_105
*974 FILLER_5_108
*975 FILLER_5_111
*976 FILLER_5_113
*977 FILLER_5_116
*978 FILLER_5_119
*979 FILLER_5_12
*980 FILLER_5_122
*981 FILLER_5_125
*982 FILLER_5_128
*983 FILLER_5_131
*984 FILLER_5_134
*985 FILLER_5_137
*986 FILLER_5_140
*987 FILLER_5_143
*988 FILLER_5_146
*989 FILLER_5_149
*990 FILLER_5_15
*991 FILLER_5_152
*992 FILLER_5_158
*993 FILLER_5_161
*994 FILLER_5_164
*995 FILLER_5_169
*996 FILLER_5_178
*997 FILLER_5_18
*998 FILLER_5_181
*999 FILLER_5_184
*1000 FILLER_5_187
*1001 FILLER_5_190
*1002 FILLER_5_193
*1003 FILLER_5_196
*1004 FILLER_5_199
*1005 FILLER_5_202
*1006 FILLER_5_205
*1007 FILLER_5_208
*1008 FILLER_5_21
*1009 FILLER_5_211
*1010 FILLER_5_214
*1011 FILLER_5_217
*1012 FILLER_5_220
*1013 FILLER_5_223
*1014 FILLER_5_225
*1015 FILLER_5_228
*1016 FILLER_5_231
*1017 FILLER_5_234
*1018 FILLER_5_237
*1019 FILLER_5_24
*1020 FILLER_5_240
*1021 FILLER_5_243
*1022 FILLER_5_246
*1023 FILLER_5_249
*1024 FILLER_5_252
*1025 FILLER_5_255
*1026 FILLER_5_258
*1027 FILLER_5_261
*1028 FILLER_5_264
*1029 FILLER_5_267
*1030 FILLER_5_27
*1031 FILLER_5_270
*1032 FILLER_5_273
*1033 FILLER_5_276
*1034 FILLER_5_279
*1035 FILLER_5_281
*1036 FILLER_5_284
*1037 FILLER_5_287
*1038 FILLER_5_290
*1039 FILLER_5_293
*1040 FILLER_5_296
*1041 FILLER_5_299
*1042 FILLER_5_3
*1043 FILLER_5_30
*1044 FILLER_5_303
*1045 FILLER_5_306
*1046 FILLER_5_309
*1047 FILLER_5_312
*1048 FILLER_5_315
*1049 FILLER_5_318
*1050 FILLER_5_321
*1051 FILLER_5_324
*1052 FILLER_5_327
*1053 FILLER_5_33
*1054 FILLER_5_330
*1055 FILLER_5_333
*1056 FILLER_5_337
*1057 FILLER_5_36
*1058 FILLER_5_39
*1059 FILLER_5_42
*1060 FILLER_5_45
*1061 FILLER_5_48
*1062 FILLER_5_51
*1063 FILLER_5_54
*1064 FILLER_5_57
*1065 FILLER_5_6
*1066 FILLER_5_60
*1067 FILLER_5_63
*1068 FILLER_5_66
*1069 FILLER_5_69
*1070 FILLER_5_72
*1071 FILLER_5_75
*1072 FILLER_5_78
*1073 FILLER_5_81
*1074 FILLER_5_84
*1075 FILLER_5_87
*1076 FILLER_5_9
*1077 FILLER_5_90
*1078 FILLER_5_93
*1079 FILLER_5_96
*1080 FILLER_5_99
*1081 FILLER_6_100
*1082 FILLER_6_103
*1083 FILLER_6_106
*1084 FILLER_6_109
*1085 FILLER_6_112
*1086 FILLER_6_115
*1087 FILLER_6_118
*1088 FILLER_6_12
*1089 FILLER_6_121
*1090 FILLER_6_124
*1091 FILLER_6_127
*1092 FILLER_6_130
*1093 FILLER_6_133
*1094 FILLER_6_136
*1095 FILLER_6_139
*1096 FILLER_6_141
*1097 FILLER_6_144
*1098 FILLER_6_147
*1099 FILLER_6_15
*1100 FILLER_6_150
*1101 FILLER_6_153
*1102 FILLER_6_156
*1103 FILLER_6_159
*1104 FILLER_6_162
*1105 FILLER_6_165
*1106 FILLER_6_168
*1107 FILLER_6_171
*1108 FILLER_6_18
*1109 FILLER_6_183
*1110 FILLER_6_186
*1111 FILLER_6_189
*1112 FILLER_6_192
*1113 FILLER_6_195
*1114 FILLER_6_197
*1115 FILLER_6_200
*1116 FILLER_6_203
*1117 FILLER_6_206
*1118 FILLER_6_209
*1119 FILLER_6_21
*1120 FILLER_6_212
*1121 FILLER_6_215
*1122 FILLER_6_218
*1123 FILLER_6_221
*1124 FILLER_6_224
*1125 FILLER_6_227
*1126 FILLER_6_230
*1127 FILLER_6_233
*1128 FILLER_6_236
*1129 FILLER_6_239
*1130 FILLER_6_24
*1131 FILLER_6_242
*1132 FILLER_6_245
*1133 FILLER_6_248
*1134 FILLER_6_251
*1135 FILLER_6_253
*1136 FILLER_6_256
*1137 FILLER_6_259
*1138 FILLER_6_262
*1139 FILLER_6_265
*1140 FILLER_6_268
*1141 FILLER_6_27
*1142 FILLER_6_271
*1143 FILLER_6_274
*1144 FILLER_6_277
*1145 FILLER_6_280
*1146 FILLER_6_283
*1147 FILLER_6_286
*1148 FILLER_6_289
*1149 FILLER_6_29
*1150 FILLER_6_292
*1151 FILLER_6_295
*1152 FILLER_6_298
*1153 FILLER_6_3
*1154 FILLER_6_301
*1155 FILLER_6_304
*1156 FILLER_6_307
*1157 FILLER_6_309
*1158 FILLER_6_312
*1159 FILLER_6_315
*1160 FILLER_6_318
*1161 FILLER_6_32
*1162 FILLER_6_321
*1163 FILLER_6_326
*1164 FILLER_6_329
*1165 FILLER_6_332
*1166 FILLER_6_335
*1167 FILLER_6_338
*1168 FILLER_6_35
*1169 FILLER_6_38
*1170 FILLER_6_41
*1171 FILLER_6_44
*1172 FILLER_6_47
*1173 FILLER_6_50
*1174 FILLER_6_53
*1175 FILLER_6_56
*1176 FILLER_6_59
*1177 FILLER_6_6
*1178 FILLER_6_62
*1179 FILLER_6_65
*1180 FILLER_6_68
*1181 FILLER_6_71
*1182 FILLER_6_74
*1183 FILLER_6_77
*1184 FILLER_6_80
*1185 FILLER_6_83
*1186 FILLER_6_85
*1187 FILLER_6_88
*1188 FILLER_6_9
*1189 FILLER_6_91
*1190 FILLER_6_94
*1191 FILLER_6_97
*1192 FILLER_7_102
*1193 FILLER_7_105
*1194 FILLER_7_108
*1195 FILLER_7_111
*1196 FILLER_7_113
*1197 FILLER_7_116
*1198 FILLER_7_119
*1199 FILLER_7_12
*1200 FILLER_7_122
*1201 FILLER_7_125
*1202 FILLER_7_128
*1203 FILLER_7_131
*1204 FILLER_7_134
*1205 FILLER_7_137
*1206 FILLER_7_140
*1207 FILLER_7_143
*1208 FILLER_7_146
*1209 FILLER_7_149
*1210 FILLER_7_15
*1211 FILLER_7_152
*1212 FILLER_7_155
*1213 FILLER_7_158
*1214 FILLER_7_161
*1215 FILLER_7_164
*1216 FILLER_7_167
*1217 FILLER_7_169
*1218 FILLER_7_172
*1219 FILLER_7_175
*1220 FILLER_7_178
*1221 FILLER_7_18
*1222 FILLER_7_181
*1223 FILLER_7_184
*1224 FILLER_7_188
*1225 FILLER_7_199
*1226 FILLER_7_202
*1227 FILLER_7_205
*1228 FILLER_7_208
*1229 FILLER_7_21
*1230 FILLER_7_211
*1231 FILLER_7_214
*1232 FILLER_7_217
*1233 FILLER_7_220
*1234 FILLER_7_223
*1235 FILLER_7_225
*1236 FILLER_7_228
*1237 FILLER_7_231
*1238 FILLER_7_234
*1239 FILLER_7_237
*1240 FILLER_7_24
*1241 FILLER_7_240
*1242 FILLER_7_243
*1243 FILLER_7_246
*1244 FILLER_7_249
*1245 FILLER_7_252
*1246 FILLER_7_255
*1247 FILLER_7_258
*1248 FILLER_7_261
*1249 FILLER_7_264
*1250 FILLER_7_267
*1251 FILLER_7_27
*1252 FILLER_7_270
*1253 FILLER_7_273
*1254 FILLER_7_276
*1255 FILLER_7_279
*1256 FILLER_7_281
*1257 FILLER_7_284
*1258 FILLER_7_287
*1259 FILLER_7_290
*1260 FILLER_7_293
*1261 FILLER_7_296
*1262 FILLER_7_299
*1263 FILLER_7_3
*1264 FILLER_7_30
*1265 FILLER_7_302
*1266 FILLER_7_305
*1267 FILLER_7_308
*1268 FILLER_7_314
*1269 FILLER_7_317
*1270 FILLER_7_320
*1271 FILLER_7_323
*1272 FILLER_7_326
*1273 FILLER_7_329
*1274 FILLER_7_33
*1275 FILLER_7_332
*1276 FILLER_7_335
*1277 FILLER_7_337
*1278 FILLER_7_36
*1279 FILLER_7_39
*1280 FILLER_7_42
*1281 FILLER_7_45
*1282 FILLER_7_48
*1283 FILLER_7_51
*1284 FILLER_7_54
*1285 FILLER_7_57
*1286 FILLER_7_6
*1287 FILLER_7_60
*1288 FILLER_7_63
*1289 FILLER_7_66
*1290 FILLER_7_69
*1291 FILLER_7_72
*1292 FILLER_7_75
*1293 FILLER_7_78
*1294 FILLER_7_81
*1295 FILLER_7_84
*1296 FILLER_7_87
*1297 FILLER_7_9
*1298 FILLER_7_90
*1299 FILLER_7_93
*1300 FILLER_7_96
*1301 FILLER_7_99
*1302 FILLER_8_100
*1303 FILLER_8_103
*1304 FILLER_8_106
*1305 FILLER_8_109
*1306 FILLER_8_112
*1307 FILLER_8_115
*1308 FILLER_8_118
*1309 FILLER_8_12
*1310 FILLER_8_121
*1311 FILLER_8_124
*1312 FILLER_8_127
*1313 FILLER_8_130
*1314 FILLER_8_133
*1315 FILLER_8_136
*1316 FILLER_8_139
*1317 FILLER_8_141
*1318 FILLER_8_144
*1319 FILLER_8_147
*1320 FILLER_8_15
*1321 FILLER_8_150
*1322 FILLER_8_153
*1323 FILLER_8_156
*1324 FILLER_8_159
*1325 FILLER_8_162
*1326 FILLER_8_165
*1327 FILLER_8_168
*1328 FILLER_8_171
*1329 FILLER_8_174
*1330 FILLER_8_177
*1331 FILLER_8_18
*1332 FILLER_8_180
*1333 FILLER_8_183
*1334 FILLER_8_186
*1335 FILLER_8_189
*1336 FILLER_8_192
*1337 FILLER_8_195
*1338 FILLER_8_197
*1339 FILLER_8_200
*1340 FILLER_8_203
*1341 FILLER_8_206
*1342 FILLER_8_21
*1343 FILLER_8_211
*1344 FILLER_8_215
*1345 FILLER_8_224
*1346 FILLER_8_227
*1347 FILLER_8_230
*1348 FILLER_8_233
*1349 FILLER_8_236
*1350 FILLER_8_239
*1351 FILLER_8_24
*1352 FILLER_8_242
*1353 FILLER_8_245
*1354 FILLER_8_248
*1355 FILLER_8_251
*1356 FILLER_8_259
*1357 FILLER_8_264
*1358 FILLER_8_267
*1359 FILLER_8_27
*1360 FILLER_8_270
*1361 FILLER_8_274
*1362 FILLER_8_277
*1363 FILLER_8_280
*1364 FILLER_8_283
*1365 FILLER_8_286
*1366 FILLER_8_289
*1367 FILLER_8_29
*1368 FILLER_8_292
*1369 FILLER_8_295
*1370 FILLER_8_298
*1371 FILLER_8_3
*1372 FILLER_8_303
*1373 FILLER_8_306
*1374 FILLER_8_309
*1375 FILLER_8_312
*1376 FILLER_8_315
*1377 FILLER_8_318
*1378 FILLER_8_32
*1379 FILLER_8_321
*1380 FILLER_8_324
*1381 FILLER_8_327
*1382 FILLER_8_330
*1383 FILLER_8_333
*1384 FILLER_8_336
*1385 FILLER_8_35
*1386 FILLER_8_38
*1387 FILLER_8_41
*1388 FILLER_8_44
*1389 FILLER_8_47
*1390 FILLER_8_50
*1391 FILLER_8_53
*1392 FILLER_8_56
*1393 FILLER_8_59
*1394 FILLER_8_6
*1395 FILLER_8_62
*1396 FILLER_8_65
*1397 FILLER_8_68
*1398 FILLER_8_71
*1399 FILLER_8_74
*1400 FILLER_8_77
*1401 FILLER_8_80
*1402 FILLER_8_83
*1403 FILLER_8_85
*1404 FILLER_8_88
*1405 FILLER_8_9
*1406 FILLER_8_91
*1407 FILLER_8_94
*1408 FILLER_8_97
*1409 FILLER_9_101
*1410 FILLER_9_104
*1411 FILLER_9_111
*1412 FILLER_9_113
*1413 FILLER_9_116
*1414 FILLER_9_119
*1415 FILLER_9_12
*1416 FILLER_9_123
*1417 FILLER_9_126
*1418 FILLER_9_129
*1419 FILLER_9_132
*1420 FILLER_9_135
*1421 FILLER_9_138
*1422 FILLER_9_141
*1423 FILLER_9_145
*1424 FILLER_9_15
*1425 FILLER_9_152
*1426 FILLER_9_155
*1427 FILLER_9_158
*1428 FILLER_9_161
*1429 FILLER_9_164
*1430 FILLER_9_167
*1431 FILLER_9_169
*1432 FILLER_9_172
*1433 FILLER_9_175
*1434 FILLER_9_178
*1435 FILLER_9_18
*1436 FILLER_9_187
*1437 FILLER_9_190
*1438 FILLER_9_193
*1439 FILLER_9_196
*1440 FILLER_9_199
*1441 FILLER_9_202
*1442 FILLER_9_206
*1443 FILLER_9_209
*1444 FILLER_9_21
*1445 FILLER_9_212
*1446 FILLER_9_215
*1447 FILLER_9_218
*1448 FILLER_9_221
*1449 FILLER_9_228
*1450 FILLER_9_235
*1451 FILLER_9_238
*1452 FILLER_9_24
*1453 FILLER_9_241
*1454 FILLER_9_244
*1455 FILLER_9_247
*1456 FILLER_9_260
*1457 FILLER_9_266
*1458 FILLER_9_269
*1459 FILLER_9_27
*1460 FILLER_9_272
*1461 FILLER_9_275
*1462 FILLER_9_278
*1463 FILLER_9_281
*1464 FILLER_9_284
*1465 FILLER_9_287
*1466 FILLER_9_3
*1467 FILLER_9_30
*1468 FILLER_9_301
*1469 FILLER_9_304
*1470 FILLER_9_307
*1471 FILLER_9_311
*1472 FILLER_9_314
*1473 FILLER_9_317
*1474 FILLER_9_320
*1475 FILLER_9_323
*1476 FILLER_9_327
*1477 FILLER_9_33
*1478 FILLER_9_330
*1479 FILLER_9_333
*1480 FILLER_9_337
*1481 FILLER_9_36
*1482 FILLER_9_39
*1483 FILLER_9_42
*1484 FILLER_9_45
*1485 FILLER_9_48
*1486 FILLER_9_51
*1487 FILLER_9_54
*1488 FILLER_9_57
*1489 FILLER_9_6
*1490 FILLER_9_60
*1491 FILLER_9_63
*1492 FILLER_9_66
*1493 FILLER_9_69
*1494 FILLER_9_72
*1495 FILLER_9_75
*1496 FILLER_9_78
*1497 FILLER_9_81
*1498 FILLER_9_84
*1499 FILLER_9_9
*1500 FILLER_9_92
*1501 FILLER_9_95
*1502 FILLER_9_98
*1503 PHY_EDGE_ROW_0_Left_12
*1504 PHY_EDGE_ROW_0_Right_0
*1505 PHY_EDGE_ROW_10_Left_22
*1506 PHY_EDGE_ROW_10_Right_10
*1507 PHY_EDGE_ROW_11_Left_23
*1508 PHY_EDGE_ROW_11_Right_11
*1509 PHY_EDGE_ROW_1_Left_13
*1510 PHY_EDGE_ROW_1_Right_1
*1511 PHY_EDGE_ROW_2_Left_14
*1512 PHY_EDGE_ROW_2_Right_2
*1513 PHY_EDGE_ROW_3_Left_15
*1514 PHY_EDGE_ROW_3_Right_3
*1515 PHY_EDGE_ROW_4_Left_16
*1516 PHY_EDGE_ROW_4_Right_4
*1517 PHY_EDGE_ROW_5_Left_17
*1518 PHY_EDGE_ROW_5_Right_5
*1519 PHY_EDGE_ROW_6_Left_18
*1520 PHY_EDGE_ROW_6_Right_6
*1521 PHY_EDGE_ROW_7_Left_19
*1522 PHY_EDGE_ROW_7_Right_7
*1523 PHY_EDGE_ROW_8_Left_20
*1524 PHY_EDGE_ROW_8_Right_8
*1525 PHY_EDGE_ROW_9_Left_21
*1526 PHY_EDGE_ROW_9_Right_9
*1527 TAP_TAPCELL_ROW_0_24
*1528 TAP_TAPCELL_ROW_0_25
*1529 TAP_TAPCELL_ROW_0_26
*1530 TAP_TAPCELL_ROW_0_27
*1531 TAP_TAPCELL_ROW_0_28
*1532 TAP_TAPCELL_ROW_0_29
*1533 TAP_TAPCELL_ROW_0_30
*1534 TAP_TAPCELL_ROW_0_31
*1535 TAP_TAPCELL_ROW_0_32
*1536 TAP_TAPCELL_ROW_0_33
*1537 TAP_TAPCELL_ROW_0_34
*1538 TAP_TAPCELL_ROW_0_35
*1539 TAP_TAPCELL_ROW_10_90
*1540 TAP_TAPCELL_ROW_10_91
*1541 TAP_TAPCELL_ROW_10_92
*1542 TAP_TAPCELL_ROW_10_93
*1543 TAP_TAPCELL_ROW_10_94
*1544 TAP_TAPCELL_ROW_10_95
*1545 TAP_TAPCELL_ROW_11_100
*1546 TAP_TAPCELL_ROW_11_101
*1547 TAP_TAPCELL_ROW_11_102
*1548 TAP_TAPCELL_ROW_11_103
*1549 TAP_TAPCELL_ROW_11_104
*1550 TAP_TAPCELL_ROW_11_105
*1551 TAP_TAPCELL_ROW_11_106
*1552 TAP_TAPCELL_ROW_11_107
*1553 TAP_TAPCELL_ROW_11_96
*1554 TAP_TAPCELL_ROW_11_97
*1555 TAP_TAPCELL_ROW_11_98
*1556 TAP_TAPCELL_ROW_11_99
*1557 TAP_TAPCELL_ROW_1_36
*1558 TAP_TAPCELL_ROW_1_37
*1559 TAP_TAPCELL_ROW_1_38
*1560 TAP_TAPCELL_ROW_1_39
*1561 TAP_TAPCELL_ROW_1_40
*1562 TAP_TAPCELL_ROW_1_41
*1563 TAP_TAPCELL_ROW_2_42
*1564 TAP_TAPCELL_ROW_2_43
*1565 TAP_TAPCELL_ROW_2_44
*1566 TAP_TAPCELL_ROW_2_45
*1567 TAP_TAPCELL_ROW_2_46
*1568 TAP_TAPCELL_ROW_2_47
*1569 TAP_TAPCELL_ROW_3_48
*1570 TAP_TAPCELL_ROW_3_49
*1571 TAP_TAPCELL_ROW_3_50
*1572 TAP_TAPCELL_ROW_3_51
*1573 TAP_TAPCELL_ROW_3_52
*1574 TAP_TAPCELL_ROW_3_53
*1575 TAP_TAPCELL_ROW_4_54
*1576 TAP_TAPCELL_ROW_4_55
*1577 TAP_TAPCELL_ROW_4_56
*1578 TAP_TAPCELL_ROW_4_57
*1579 TAP_TAPCELL_ROW_4_58
*1580 TAP_TAPCELL_ROW_4_59
*1581 TAP_TAPCELL_ROW_5_60
*1582 TAP_TAPCELL_ROW_5_61
*1583 TAP_TAPCELL_ROW_5_62
*1584 TAP_TAPCELL_ROW_5_63
*1585 TAP_TAPCELL_ROW_5_64
*1586 TAP_TAPCELL_ROW_5_65
*1587 TAP_TAPCELL_ROW_6_66
*1588 TAP_TAPCELL_ROW_6_67
*1589 TAP_TAPCELL_ROW_6_68
*1590 TAP_TAPCELL_ROW_6_69
*1591 TAP_TAPCELL_ROW_6_70
*1592 TAP_TAPCELL_ROW_6_71
*1593 TAP_TAPCELL_ROW_7_72
*1594 TAP_TAPCELL_ROW_7_73
*1595 TAP_TAPCELL_ROW_7_74
*1596 TAP_TAPCELL_ROW_7_75
*1597 TAP_TAPCELL_ROW_7_76
*1598 TAP_TAPCELL_ROW_7_77
*1599 TAP_TAPCELL_ROW_8_78
*1600 TAP_TAPCELL_ROW_8_79
*1601 TAP_TAPCELL_ROW_8_80
*1602 TAP_TAPCELL_ROW_8_81
*1603 TAP_TAPCELL_ROW_8_82
*1604 TAP_TAPCELL_ROW_8_83
*1605 TAP_TAPCELL_ROW_9_84
*1606 TAP_TAPCELL_ROW_9_85
*1607 TAP_TAPCELL_ROW_9_86
*1608 TAP_TAPCELL_ROW_9_87
*1609 TAP_TAPCELL_ROW_9_88
*1610 TAP_TAPCELL_ROW_9_89
*1611 _000_
*1612 _001_
*1613 _002_
*1614 _003_
*1615 _004_
*1616 _005_
*1617 _006_
*1618 _007_
*1619 _008_
*1620 _009_
*1621 _010_
*1622 _011_
*1623 _012_
*1624 _013_
*1625 _014_
*1626 _015_
*1627 _016_
*1628 _017_
*1629 _018_
*1630 _019_
*1631 _020_
*1632 _021_
*1633 _022_
*1634 _023_
*1635 _024_
*1636 _025_
*1637 _026_
*1638 _027_
*1639 _028_
*1640 _029_
*1641 _030_
*1642 _031_
*1643 _032_
*1644 _033_