* NGSPICE file created from N_term_DSP.ext - technology: sky130A

* Black-box entry subcircuit for sky130_fd_sc_hd__decap_3 abstract view
.subckt sky130_fd_sc_hd__decap_3 VGND VNB VPB VPWR
.ends

* Black-box entry subcircuit for sky130_fd_sc_hd__fill_2 abstract view
.subckt sky130_fd_sc_hd__fill_2 VGND VNB VPB VPWR
.ends

* Black-box entry subcircuit for sky130_fd_sc_hd__tapvpwrvgnd_1 abstract view
.subckt sky130_fd_sc_hd__tapvpwrvgnd_1 VGND VPWR
.ends

* Black-box entry subcircuit for sky130_fd_sc_hd__buf_1 abstract view
.subckt sky130_fd_sc_hd__buf_1 A VGND VNB VPB VPWR X
.ends

* Black-box entry subcircuit for sky130_fd_sc_hd__fill_1 abstract view
.subckt sky130_fd_sc_hd__fill_1 VGND VNB VPB VPWR
.ends

* Black-box entry subcircuit for sky130_fd_sc_hd__clkbuf_1 abstract view
.subckt sky130_fd_sc_hd__clkbuf_1 A VGND VNB VPB VPWR X
.ends

* Black-box entry subcircuit for sky130_fd_sc_hd__diode_2 abstract view
.subckt sky130_fd_sc_hd__diode_2 DIODE VGND VNB VPB VPWR
.ends

* Black-box entry subcircuit for sky130_fd_sc_hd__buf_2 abstract view
.subckt sky130_fd_sc_hd__buf_2 A VGND VNB VPB VPWR X
.ends

.subckt N_term_DSP FrameData[0] FrameData[10] FrameData[11] FrameData[12] FrameData[13]
+ FrameData[14] FrameData[15] FrameData[16] FrameData[17] FrameData[18] FrameData[19]
+ FrameData[1] FrameData[20] FrameData[21] FrameData[22] FrameData[23] FrameData[24]
+ FrameData[25] FrameData[26] FrameData[27] FrameData[28] FrameData[29] FrameData[2]
+ FrameData[30] FrameData[31] FrameData[3] FrameData[4] FrameData[5] FrameData[6]
+ FrameData[7] FrameData[8] FrameData[9] FrameData_O[0] FrameData_O[10] FrameData_O[11]
+ FrameData_O[12] FrameData_O[13] FrameData_O[14] FrameData_O[15] FrameData_O[16]
+ FrameData_O[17] FrameData_O[18] FrameData_O[19] FrameData_O[1] FrameData_O[20] FrameData_O[21]
+ FrameData_O[22] FrameData_O[23] FrameData_O[24] FrameData_O[25] FrameData_O[26]
+ FrameData_O[27] FrameData_O[28] FrameData_O[29] FrameData_O[2] FrameData_O[30] FrameData_O[31]
+ FrameData_O[3] FrameData_O[4] FrameData_O[5] FrameData_O[6] FrameData_O[7] FrameData_O[8]
+ FrameData_O[9] FrameStrobe[0] FrameStrobe[10] FrameStrobe[11] FrameStrobe[12] FrameStrobe[13]
+ FrameStrobe[14] FrameStrobe[15] FrameStrobe[16] FrameStrobe[17] FrameStrobe[18]
+ FrameStrobe[19] FrameStrobe[1] FrameStrobe[2] FrameStrobe[3] FrameStrobe[4] FrameStrobe[5]
+ FrameStrobe[6] FrameStrobe[7] FrameStrobe[8] FrameStrobe[9] FrameStrobe_O[0] FrameStrobe_O[10]
+ FrameStrobe_O[11] FrameStrobe_O[12] FrameStrobe_O[13] FrameStrobe_O[14] FrameStrobe_O[15]
+ FrameStrobe_O[16] FrameStrobe_O[17] FrameStrobe_O[18] FrameStrobe_O[19] FrameStrobe_O[1]
+ FrameStrobe_O[2] FrameStrobe_O[3] FrameStrobe_O[4] FrameStrobe_O[5] FrameStrobe_O[6]
+ FrameStrobe_O[7] FrameStrobe_O[8] FrameStrobe_O[9] N1END[0] N1END[1] N1END[2] N1END[3]
+ N2END[0] N2END[1] N2END[2] N2END[3] N2END[4] N2END[5] N2END[6] N2END[7] N2MID[0]
+ N2MID[1] N2MID[2] N2MID[3] N2MID[4] N2MID[5] N2MID[6] N2MID[7] N4END[0] N4END[10]
+ N4END[11] N4END[12] N4END[13] N4END[14] N4END[15] N4END[1] N4END[2] N4END[3] N4END[4]
+ N4END[5] N4END[6] N4END[7] N4END[8] N4END[9] NN4END[0] NN4END[10] NN4END[11] NN4END[12]
+ NN4END[13] NN4END[14] NN4END[15] NN4END[1] NN4END[2] NN4END[3] NN4END[4] NN4END[5]
+ NN4END[6] NN4END[7] NN4END[8] NN4END[9] S1BEG[0] S1BEG[1] S1BEG[2] S1BEG[3] S2BEG[0]
+ S2BEG[1] S2BEG[2] S2BEG[3] S2BEG[4] S2BEG[5] S2BEG[6] S2BEG[7] S2BEGb[0] S2BEGb[1]
+ S2BEGb[2] S2BEGb[3] S2BEGb[4] S2BEGb[5] S2BEGb[6] S2BEGb[7] S4BEG[0] S4BEG[10] S4BEG[11]
+ S4BEG[12] S4BEG[13] S4BEG[14] S4BEG[15] S4BEG[1] S4BEG[2] S4BEG[3] S4BEG[4] S4BEG[5]
+ S4BEG[6] S4BEG[7] S4BEG[8] S4BEG[9] SS4BEG[0] SS4BEG[10] SS4BEG[11] SS4BEG[12] SS4BEG[13]
+ SS4BEG[14] SS4BEG[15] SS4BEG[1] SS4BEG[2] SS4BEG[3] SS4BEG[4] SS4BEG[5] SS4BEG[6]
+ SS4BEG[7] SS4BEG[8] SS4BEG[9] UserCLK UserCLKo VGND VPWR
XFILLER_10_339 VGND VGND VPWR VPWR sky130_fd_sc_hd__decap_3
XFILLER_9_137 VGND VGND VPWR VPWR sky130_fd_sc_hd__decap_3
XFILLER_3_12 VGND VGND VPWR VPWR sky130_fd_sc_hd__decap_3
XFILLER_3_34 VGND VGND VPWR VPWR sky130_fd_sc_hd__decap_3
XFILLER_5_332 VGND VGND VPWR VPWR sky130_fd_sc_hd__decap_3
XFILLER_5_343 VGND VGND VPWR VPWR sky130_fd_sc_hd__fill_2
XFILLER_5_354 VGND VGND VPWR VPWR sky130_fd_sc_hd__decap_3
XFILLER_5_387 VGND VGND VPWR VPWR sky130_fd_sc_hd__decap_3
XFILLER_3_78 VGND VGND VPWR VPWR sky130_fd_sc_hd__decap_3
XFILLER_8_170 VGND VGND VPWR VPWR sky130_fd_sc_hd__decap_3
XFILLER_6_118 VGND VGND VPWR VPWR sky130_fd_sc_hd__decap_3
XFILLER_10_103 VGND VGND VPWR VPWR sky130_fd_sc_hd__decap_3
XFILLER_10_136 VGND VGND VPWR VPWR sky130_fd_sc_hd__decap_3
XFILLER_10_147 VGND VGND VPWR VPWR sky130_fd_sc_hd__decap_3
XPHY_EDGE_ROW_0_Left_12 VGND VGND VPWR VPWR sky130_fd_sc_hd__decap_3
XFILLER_2_335 VGND VGND VPWR VPWR sky130_fd_sc_hd__decap_3
XFILLER_2_368 VGND VGND VPWR VPWR sky130_fd_sc_hd__decap_3
XTAP_TAPCELL_ROW_8_88 VGND VPWR sky130_fd_sc_hd__tapvpwrvgnd_1
XTAP_TAPCELL_ROW_11_120 VGND VPWR sky130_fd_sc_hd__tapvpwrvgnd_1
X_062_ N2MID[1] VGND VGND VPWR VPWR net63 sky130_fd_sc_hd__buf_1
XFILLER_2_187 VGND VGND VPWR VPWR sky130_fd_sc_hd__decap_3
XFILLER_2_165 VGND VGND VPWR VPWR sky130_fd_sc_hd__fill_1
XFILLER_2_121 VGND VGND VPWR VPWR sky130_fd_sc_hd__decap_3
XFILLER_0_24 VGND VGND VPWR VPWR sky130_fd_sc_hd__decap_3
XFILLER_0_35 VGND VGND VPWR VPWR sky130_fd_sc_hd__decap_3
XFILLER_0_57 VGND VGND VPWR VPWR sky130_fd_sc_hd__decap_3
XFILLER_9_33 VGND VGND VPWR VPWR sky130_fd_sc_hd__decap_3
XFILLER_9_66 VGND VGND VPWR VPWR sky130_fd_sc_hd__decap_3
XFILLER_9_99 VGND VGND VPWR VPWR sky130_fd_sc_hd__decap_3
XFILLER_11_275 VGND VGND VPWR VPWR sky130_fd_sc_hd__decap_3
XFILLER_11_253 VGND VGND VPWR VPWR sky130_fd_sc_hd__decap_3
XTAP_TAPCELL_ROW_5_67 VGND VPWR sky130_fd_sc_hd__tapvpwrvgnd_1
XFILLER_7_213 VGND VGND VPWR VPWR sky130_fd_sc_hd__decap_3
X_045_ FrameStrobe[13] VGND VGND VPWR VPWR net37 sky130_fd_sc_hd__clkbuf_1
XFILLER_7_246 VGND VGND VPWR VPWR sky130_fd_sc_hd__decap_3
XFILLER_7_279 VGND VGND VPWR VPWR sky130_fd_sc_hd__fill_1
XFILLER_4_205 VGND VGND VPWR VPWR sky130_fd_sc_hd__decap_3
XFILLER_6_12 VGND VGND VPWR VPWR sky130_fd_sc_hd__decap_3
XFILLER_3_260 VGND VGND VPWR VPWR sky130_fd_sc_hd__decap_3
XANTENNA_5 FrameData[13] VGND VGND VPWR VPWR sky130_fd_sc_hd__diode_2
XFILLER_6_56 VGND VGND VPWR VPWR sky130_fd_sc_hd__decap_3
X_028_ FrameData[28] VGND VGND VPWR VPWR net21 sky130_fd_sc_hd__buf_1
XFILLER_9_308 VGND VGND VPWR VPWR sky130_fd_sc_hd__decap_3
Xoutput42 net42 VGND VGND VPWR VPWR FrameStrobe_O[18] sky130_fd_sc_hd__buf_2
Xoutput20 net20 VGND VGND VPWR VPWR FrameData_O[27] sky130_fd_sc_hd__buf_2
XTAP_TAPCELL_ROW_2_46 VGND VPWR sky130_fd_sc_hd__tapvpwrvgnd_1
Xoutput75 net75 VGND VGND VPWR VPWR S4BEG[11] sky130_fd_sc_hd__buf_2
Xoutput64 net64 VGND VGND VPWR VPWR S2BEG[7] sky130_fd_sc_hd__buf_2
Xoutput53 net53 VGND VGND VPWR VPWR S1BEG[0] sky130_fd_sc_hd__buf_2
Xoutput31 net31 VGND VGND VPWR VPWR FrameData_O[8] sky130_fd_sc_hd__buf_2
Xoutput7 net7 VGND VGND VPWR VPWR FrameData_O[15] sky130_fd_sc_hd__buf_2
Xoutput97 net97 VGND VGND VPWR VPWR SS4BEG[2] sky130_fd_sc_hd__buf_2
Xoutput86 net86 VGND VGND VPWR VPWR S4BEG[7] sky130_fd_sc_hd__buf_2
XFILLER_8_330 VGND VGND VPWR VPWR sky130_fd_sc_hd__decap_3
XFILLER_8_363 VGND VGND VPWR VPWR sky130_fd_sc_hd__fill_1
XFILLER_8_374 VGND VGND VPWR VPWR sky130_fd_sc_hd__decap_3
XFILLER_10_318 VGND VGND VPWR VPWR sky130_fd_sc_hd__decap_3
XFILLER_10_307 VGND VGND VPWR VPWR sky130_fd_sc_hd__fill_1
XFILLER_9_105 VGND VGND VPWR VPWR sky130_fd_sc_hd__decap_3
XFILLER_9_116 VGND VGND VPWR VPWR sky130_fd_sc_hd__decap_3
XFILLER_5_311 VGND VGND VPWR VPWR sky130_fd_sc_hd__decap_3
XFILLER_9_149 VGND VGND VPWR VPWR sky130_fd_sc_hd__decap_3
XFILLER_3_46 VGND VGND VPWR VPWR sky130_fd_sc_hd__decap_3
XFILLER_3_57 VGND VGND VPWR VPWR sky130_fd_sc_hd__decap_3
XFILLER_5_366 VGND VGND VPWR VPWR sky130_fd_sc_hd__decap_3
XFILLER_8_182 VGND VGND VPWR VPWR sky130_fd_sc_hd__decap_3
XFILLER_10_115 VGND VGND VPWR VPWR sky130_fd_sc_hd__decap_3
XFILLER_10_159 VGND VGND VPWR VPWR sky130_fd_sc_hd__decap_3
XFILLER_2_347 VGND VGND VPWR VPWR sky130_fd_sc_hd__decap_3
XTAP_TAPCELL_ROW_11_121 VGND VPWR sky130_fd_sc_hd__tapvpwrvgnd_1
XTAP_TAPCELL_ROW_11_110 VGND VPWR sky130_fd_sc_hd__tapvpwrvgnd_1
XTAP_TAPCELL_ROW_8_89 VGND VPWR sky130_fd_sc_hd__tapvpwrvgnd_1
XFILLER_5_152 VGND VGND VPWR VPWR sky130_fd_sc_hd__decap_3
XFILLER_5_185 VGND VGND VPWR VPWR sky130_fd_sc_hd__decap_3
XFILLER_1_391 VGND VGND VPWR VPWR sky130_fd_sc_hd__fill_1
XFILLER_2_100 VGND VGND VPWR VPWR sky130_fd_sc_hd__decap_3
X_061_ N2MID[2] VGND VGND VPWR VPWR net62 sky130_fd_sc_hd__buf_1
XFILLER_2_177 VGND VGND VPWR VPWR sky130_fd_sc_hd__fill_1
XFILLER_2_144 VGND VGND VPWR VPWR sky130_fd_sc_hd__decap_3
XFILLER_2_133 VGND VGND VPWR VPWR sky130_fd_sc_hd__decap_3
XFILLER_0_47 VGND VGND VPWR VPWR sky130_fd_sc_hd__decap_3
XFILLER_0_69 VGND VGND VPWR VPWR sky130_fd_sc_hd__decap_3
XFILLER_9_12 VGND VGND VPWR VPWR sky130_fd_sc_hd__decap_3
XFILLER_9_45 VGND VGND VPWR VPWR sky130_fd_sc_hd__decap_3
XFILLER_9_78 VGND VGND VPWR VPWR sky130_fd_sc_hd__decap_3
XFILLER_11_298 VGND VGND VPWR VPWR sky130_fd_sc_hd__decap_3
XFILLER_11_232 VGND VGND VPWR VPWR sky130_fd_sc_hd__decap_3
XFILLER_11_221 VGND VGND VPWR VPWR sky130_fd_sc_hd__decap_3
XTAP_TAPCELL_ROW_5_68 VGND VPWR sky130_fd_sc_hd__tapvpwrvgnd_1
XFILLER_7_225 VGND VGND VPWR VPWR sky130_fd_sc_hd__decap_3
X_044_ FrameStrobe[12] VGND VGND VPWR VPWR net36 sky130_fd_sc_hd__clkbuf_1
XFILLER_7_258 VGND VGND VPWR VPWR sky130_fd_sc_hd__decap_3
XFILLER_6_280 VGND VGND VPWR VPWR sky130_fd_sc_hd__decap_3
XFILLER_1_90 VGND VGND VPWR VPWR sky130_fd_sc_hd__decap_3
XFILLER_4_217 VGND VGND VPWR VPWR sky130_fd_sc_hd__decap_3
XFILLER_4_228 VGND VGND VPWR VPWR sky130_fd_sc_hd__decap_3
XANTENNA_6 FrameData[14] VGND VGND VPWR VPWR sky130_fd_sc_hd__diode_2
XFILLER_6_24 VGND VGND VPWR VPWR sky130_fd_sc_hd__decap_3
XFILLER_6_35 VGND VGND VPWR VPWR sky130_fd_sc_hd__decap_3
XFILLER_6_79 VGND VGND VPWR VPWR sky130_fd_sc_hd__decap_3
X_027_ FrameData[27] VGND VGND VPWR VPWR net20 sky130_fd_sc_hd__buf_1
XFILLER_1_209 VGND VGND VPWR VPWR sky130_fd_sc_hd__decap_3
XPHY_EDGE_ROW_6_Right_6 VGND VGND VPWR VPWR sky130_fd_sc_hd__decap_3
Xoutput43 net43 VGND VGND VPWR VPWR FrameStrobe_O[19] sky130_fd_sc_hd__buf_2
XTAP_TAPCELL_ROW_2_47 VGND VPWR sky130_fd_sc_hd__tapvpwrvgnd_1
Xoutput98 net98 VGND VGND VPWR VPWR SS4BEG[3] sky130_fd_sc_hd__buf_2
Xoutput76 net76 VGND VGND VPWR VPWR S4BEG[12] sky130_fd_sc_hd__buf_2
Xoutput87 net87 VGND VGND VPWR VPWR S4BEG[8] sky130_fd_sc_hd__buf_2
Xoutput65 net65 VGND VGND VPWR VPWR S2BEGb[0] sky130_fd_sc_hd__buf_2
Xoutput54 net54 VGND VGND VPWR VPWR S1BEG[1] sky130_fd_sc_hd__buf_2
Xoutput32 net32 VGND VGND VPWR VPWR FrameData_O[9] sky130_fd_sc_hd__buf_2
Xoutput10 net10 VGND VGND VPWR VPWR FrameData_O[18] sky130_fd_sc_hd__buf_2
Xoutput8 net8 VGND VGND VPWR VPWR FrameData_O[16] sky130_fd_sc_hd__buf_2
Xoutput21 net21 VGND VGND VPWR VPWR FrameData_O[28] sky130_fd_sc_hd__buf_2
XFILLER_8_342 VGND VGND VPWR VPWR sky130_fd_sc_hd__decap_3
XFILLER_8_386 VGND VGND VPWR VPWR sky130_fd_sc_hd__decap_3
XFILLER_7_9 VGND VGND VPWR VPWR sky130_fd_sc_hd__decap_3
XFILLER_9_128 VGND VGND VPWR VPWR sky130_fd_sc_hd__decap_3
XFILLER_5_323 VGND VGND VPWR VPWR sky130_fd_sc_hd__decap_3
XFILLER_5_378 VGND VGND VPWR VPWR sky130_fd_sc_hd__decap_3
XFILLER_3_25 VGND VGND VPWR VPWR sky130_fd_sc_hd__decap_3
XFILLER_3_69 VGND VGND VPWR VPWR sky130_fd_sc_hd__decap_3
XFILLER_8_150 VGND VGND VPWR VPWR sky130_fd_sc_hd__decap_3
XFILLER_8_194 VGND VGND VPWR VPWR sky130_fd_sc_hd__fill_2
XFILLER_6_109 VGND VGND VPWR VPWR sky130_fd_sc_hd__decap_3
XFILLER_10_127 VGND VGND VPWR VPWR sky130_fd_sc_hd__decap_3
XFILLER_2_326 VGND VGND VPWR VPWR sky130_fd_sc_hd__decap_3
XFILLER_2_359 VGND VGND VPWR VPWR sky130_fd_sc_hd__decap_3
XFILLER_5_6 VGND VGND VPWR VPWR sky130_fd_sc_hd__decap_3
XTAP_TAPCELL_ROW_11_111 VGND VPWR sky130_fd_sc_hd__tapvpwrvgnd_1
XFILLER_5_131 VGND VGND VPWR VPWR sky130_fd_sc_hd__decap_3
XFILLER_5_164 VGND VGND VPWR VPWR sky130_fd_sc_hd__decap_3
XFILLER_5_175 VGND VGND VPWR VPWR sky130_fd_sc_hd__fill_2
XFILLER_5_197 VGND VGND VPWR VPWR sky130_fd_sc_hd__decap_3
XFILLER_1_370 VGND VGND VPWR VPWR sky130_fd_sc_hd__decap_3
XFILLER_2_156 VGND VGND VPWR VPWR sky130_fd_sc_hd__decap_3
XFILLER_2_112 VGND VGND VPWR VPWR sky130_fd_sc_hd__decap_3
XFILLER_3_3 VGND VGND VPWR VPWR sky130_fd_sc_hd__decap_3
X_060_ N2MID[3] VGND VGND VPWR VPWR net61 sky130_fd_sc_hd__buf_1
XFILLER_0_15 VGND VGND VPWR VPWR sky130_fd_sc_hd__decap_3
XFILLER_9_24 VGND VGND VPWR VPWR sky130_fd_sc_hd__decap_3
XFILLER_9_57 VGND VGND VPWR VPWR sky130_fd_sc_hd__decap_3
XFILLER_11_244 VGND VGND VPWR VPWR sky130_fd_sc_hd__fill_1
XFILLER_11_200 VGND VGND VPWR VPWR sky130_fd_sc_hd__decap_3
X_043_ FrameStrobe[11] VGND VGND VPWR VPWR net35 sky130_fd_sc_hd__clkbuf_1
XTAP_TAPCELL_ROW_5_69 VGND VPWR sky130_fd_sc_hd__tapvpwrvgnd_1
XFILLER_7_204 VGND VGND VPWR VPWR sky130_fd_sc_hd__decap_3
XFILLER_7_237 VGND VGND VPWR VPWR sky130_fd_sc_hd__decap_3
XFILLER_6_292 VGND VGND VPWR VPWR sky130_fd_sc_hd__fill_2
XANTENNA_7 FrameData[15] VGND VGND VPWR VPWR sky130_fd_sc_hd__diode_2
XFILLER_6_47 VGND VGND VPWR VPWR sky130_fd_sc_hd__decap_3
X_026_ FrameData[26] VGND VGND VPWR VPWR net19 sky130_fd_sc_hd__buf_1
XFILLER_3_251 VGND VGND VPWR VPWR sky130_fd_sc_hd__decap_3
XFILLER_3_273 VGND VGND VPWR VPWR sky130_fd_sc_hd__fill_1
XTAP_TAPCELL_ROW_2_48 VGND VPWR sky130_fd_sc_hd__tapvpwrvgnd_1
Xoutput44 net44 VGND VGND VPWR VPWR FrameStrobe_O[1] sky130_fd_sc_hd__buf_2
Xoutput33 net33 VGND VGND VPWR VPWR FrameStrobe_O[0] sky130_fd_sc_hd__buf_2
Xoutput22 net22 VGND VGND VPWR VPWR FrameData_O[29] sky130_fd_sc_hd__buf_2
Xoutput99 net99 VGND VGND VPWR VPWR SS4BEG[4] sky130_fd_sc_hd__buf_2
Xoutput77 net77 VGND VGND VPWR VPWR S4BEG[13] sky130_fd_sc_hd__buf_2
Xoutput88 net88 VGND VGND VPWR VPWR S4BEG[9] sky130_fd_sc_hd__buf_2
XFILLER_0_221 VGND VGND VPWR VPWR sky130_fd_sc_hd__decap_3
Xoutput66 net66 VGND VGND VPWR VPWR S2BEGb[1] sky130_fd_sc_hd__buf_2
Xoutput55 net55 VGND VGND VPWR VPWR S1BEG[2] sky130_fd_sc_hd__buf_2
Xoutput11 net11 VGND VGND VPWR VPWR FrameData_O[19] sky130_fd_sc_hd__buf_2
Xoutput9 net9 VGND VGND VPWR VPWR FrameData_O[17] sky130_fd_sc_hd__buf_2
XFILLER_8_321 VGND VGND VPWR VPWR sky130_fd_sc_hd__decap_3
XFILLER_8_354 VGND VGND VPWR VPWR sky130_fd_sc_hd__decap_3
X_009_ FrameData[9] VGND VGND VPWR VPWR net32 sky130_fd_sc_hd__buf_1
XFILLER_8_365 VGND VGND VPWR VPWR sky130_fd_sc_hd__decap_3
XFILLER_8_398 VGND VGND VPWR VPWR sky130_fd_sc_hd__fill_1
XFILLER_10_309 VGND VGND VPWR VPWR sky130_fd_sc_hd__decap_3
XFILLER_7_90 VGND VGND VPWR VPWR sky130_fd_sc_hd__fill_2
XFILLER_5_302 VGND VGND VPWR VPWR sky130_fd_sc_hd__decap_3
XFILLER_5_335 VGND VGND VPWR VPWR sky130_fd_sc_hd__fill_1
XFILLER_5_357 VGND VGND VPWR VPWR sky130_fd_sc_hd__decap_3
XFILLER_3_15 VGND VGND VPWR VPWR sky130_fd_sc_hd__decap_3
XFILLER_3_37 VGND VGND VPWR VPWR sky130_fd_sc_hd__decap_3
XFILLER_8_173 VGND VGND VPWR VPWR sky130_fd_sc_hd__decap_3
XFILLER_10_106 VGND VGND VPWR VPWR sky130_fd_sc_hd__decap_3
XFILLER_10_139 VGND VGND VPWR VPWR sky130_fd_sc_hd__fill_1
XFILLER_2_305 VGND VGND VPWR VPWR sky130_fd_sc_hd__fill_1
XFILLER_2_338 VGND VGND VPWR VPWR sky130_fd_sc_hd__decap_3
XTAP_TAPCELL_ROW_11_112 VGND VPWR sky130_fd_sc_hd__tapvpwrvgnd_1
XFILLER_1_393 VGND VGND VPWR VPWR sky130_fd_sc_hd__fill_2
XFILLER_1_382 VGND VGND VPWR VPWR sky130_fd_sc_hd__decap_3
XFILLER_4_91 VGND VGND VPWR VPWR sky130_fd_sc_hd__decap_3
XPHY_EDGE_ROW_4_Left_16 VGND VGND VPWR VPWR sky130_fd_sc_hd__decap_3
XFILLER_2_124 VGND VGND VPWR VPWR sky130_fd_sc_hd__decap_3
XFILLER_0_27 VGND VGND VPWR VPWR sky130_fd_sc_hd__fill_1
XFILLER_0_38 VGND VGND VPWR VPWR sky130_fd_sc_hd__decap_3
XFILLER_9_36 VGND VGND VPWR VPWR sky130_fd_sc_hd__decap_3
XFILLER_9_69 VGND VGND VPWR VPWR sky130_fd_sc_hd__decap_3
XFILLER_9_290 VGND VGND VPWR VPWR sky130_fd_sc_hd__decap_3
XFILLER_11_212 VGND VGND VPWR VPWR sky130_fd_sc_hd__decap_3
XFILLER_11_289 VGND VGND VPWR VPWR sky130_fd_sc_hd__decap_3
XFILLER_11_278 VGND VGND VPWR VPWR sky130_fd_sc_hd__fill_2
XFILLER_11_256 VGND VGND VPWR VPWR sky130_fd_sc_hd__decap_3
XFILLER_7_216 VGND VGND VPWR VPWR sky130_fd_sc_hd__decap_3
XFILLER_7_249 VGND VGND VPWR VPWR sky130_fd_sc_hd__decap_3
X_042_ FrameStrobe[10] VGND VGND VPWR VPWR net34 sky130_fd_sc_hd__clkbuf_1
XFILLER_6_271 VGND VGND VPWR VPWR sky130_fd_sc_hd__decap_3
XFILLER_1_81 VGND VGND VPWR VPWR sky130_fd_sc_hd__decap_3
XFILLER_4_208 VGND VGND VPWR VPWR sky130_fd_sc_hd__decap_3
XFILLER_3_230 VGND VGND VPWR VPWR sky130_fd_sc_hd__decap_3
XFILLER_3_263 VGND VGND VPWR VPWR sky130_fd_sc_hd__fill_2
XANTENNA_8 FrameData[16] VGND VGND VPWR VPWR sky130_fd_sc_hd__diode_2
XFILLER_6_15 VGND VGND VPWR VPWR sky130_fd_sc_hd__decap_3
XFILLER_6_59 VGND VGND VPWR VPWR sky130_fd_sc_hd__decap_3
X_025_ FrameData[25] VGND VGND VPWR VPWR net18 sky130_fd_sc_hd__buf_1
XFILLER_3_285 VGND VGND VPWR VPWR sky130_fd_sc_hd__decap_3
Xoutput34 net34 VGND VGND VPWR VPWR FrameStrobe_O[10] sky130_fd_sc_hd__buf_2
XTAP_TAPCELL_ROW_2_49 VGND VPWR sky130_fd_sc_hd__tapvpwrvgnd_1
Xoutput23 net23 VGND VGND VPWR VPWR FrameData_O[2] sky130_fd_sc_hd__buf_2
Xoutput12 net12 VGND VGND VPWR VPWR FrameData_O[1] sky130_fd_sc_hd__buf_2
Xoutput45 net45 VGND VGND VPWR VPWR FrameStrobe_O[2] sky130_fd_sc_hd__buf_2
Xoutput89 net89 VGND VGND VPWR VPWR SS4BEG[0] sky130_fd_sc_hd__buf_2
Xoutput78 net78 VGND VGND VPWR VPWR S4BEG[14] sky130_fd_sc_hd__buf_2
XFILLER_0_277 VGND VGND VPWR VPWR sky130_fd_sc_hd__decap_3
Xoutput67 net67 VGND VGND VPWR VPWR S2BEGb[2] sky130_fd_sc_hd__buf_2
Xoutput56 net56 VGND VGND VPWR VPWR S1BEG[3] sky130_fd_sc_hd__buf_2
XFILLER_8_333 VGND VGND VPWR VPWR sky130_fd_sc_hd__decap_3
XFILLER_8_377 VGND VGND VPWR VPWR sky130_fd_sc_hd__decap_3
X_008_ FrameData[8] VGND VGND VPWR VPWR net31 sky130_fd_sc_hd__buf_1
XFILLER_11_3 VGND VGND VPWR VPWR sky130_fd_sc_hd__fill_2
XFILLER_9_108 VGND VGND VPWR VPWR sky130_fd_sc_hd__decap_3
XFILLER_9_119 VGND VGND VPWR VPWR sky130_fd_sc_hd__decap_3
XFILLER_5_314 VGND VGND VPWR VPWR sky130_fd_sc_hd__decap_3
XFILLER_5_369 VGND VGND VPWR VPWR sky130_fd_sc_hd__decap_3
XFILLER_3_49 VGND VGND VPWR VPWR sky130_fd_sc_hd__decap_3
XFILLER_8_130 VGND VGND VPWR VPWR sky130_fd_sc_hd__decap_3
XFILLER_8_141 VGND VGND VPWR VPWR sky130_fd_sc_hd__decap_3
XFILLER_8_185 VGND VGND VPWR VPWR sky130_fd_sc_hd__decap_3
XFILLER_4_380 VGND VGND VPWR VPWR sky130_fd_sc_hd__decap_3
XFILLER_10_118 VGND VGND VPWR VPWR sky130_fd_sc_hd__decap_3
XFILLER_2_317 VGND VGND VPWR VPWR sky130_fd_sc_hd__decap_3
XTAP_TAPCELL_ROW_11_113 VGND VPWR sky130_fd_sc_hd__tapvpwrvgnd_1
XFILLER_5_111 VGND VGND VPWR VPWR sky130_fd_sc_hd__fill_1
XFILLER_5_122 VGND VGND VPWR VPWR sky130_fd_sc_hd__decap_3
XFILLER_5_155 VGND VGND VPWR VPWR sky130_fd_sc_hd__decap_3
XFILLER_1_361 VGND VGND VPWR VPWR sky130_fd_sc_hd__decap_3
XFILLER_5_188 VGND VGND VPWR VPWR sky130_fd_sc_hd__decap_3
XFILLER_4_70 VGND VGND VPWR VPWR sky130_fd_sc_hd__decap_3
XFILLER_2_169 VGND VGND VPWR VPWR sky130_fd_sc_hd__fill_2
XFILLER_2_147 VGND VGND VPWR VPWR sky130_fd_sc_hd__decap_3
XFILLER_2_136 VGND VGND VPWR VPWR sky130_fd_sc_hd__decap_3
XFILLER_2_103 VGND VGND VPWR VPWR sky130_fd_sc_hd__decap_3
XFILLER_9_15 VGND VGND VPWR VPWR sky130_fd_sc_hd__decap_3
XFILLER_9_48 VGND VGND VPWR VPWR sky130_fd_sc_hd__decap_3
XFILLER_11_235 VGND VGND VPWR VPWR sky130_fd_sc_hd__decap_3
XFILLER_7_228 VGND VGND VPWR VPWR sky130_fd_sc_hd__decap_3
X_041_ FrameStrobe[9] VGND VGND VPWR VPWR net52 sky130_fd_sc_hd__clkbuf_1
XFILLER_6_250 VGND VGND VPWR VPWR sky130_fd_sc_hd__fill_2
XFILLER_6_283 VGND VGND VPWR VPWR sky130_fd_sc_hd__decap_3
XFILLER_1_60 VGND VGND VPWR VPWR sky130_fd_sc_hd__decap_3
XFILLER_1_93 VGND VGND VPWR VPWR sky130_fd_sc_hd__decap_3
XFILLER_3_242 VGND VGND VPWR VPWR sky130_fd_sc_hd__decap_3
XFILLER_6_27 VGND VGND VPWR VPWR sky130_fd_sc_hd__fill_1
XFILLER_6_38 VGND VGND VPWR VPWR sky130_fd_sc_hd__decap_3
XANTENNA_9 FrameData[17] VGND VGND VPWR VPWR sky130_fd_sc_hd__diode_2
X_024_ FrameData[24] VGND VGND VPWR VPWR net17 sky130_fd_sc_hd__buf_1
XFILLER_10_80 VGND VGND VPWR VPWR sky130_fd_sc_hd__decap_3
XFILLER_10_91 VGND VGND VPWR VPWR sky130_fd_sc_hd__decap_3
Xoutput35 net35 VGND VGND VPWR VPWR FrameStrobe_O[11] sky130_fd_sc_hd__buf_2
Xoutput46 net46 VGND VGND VPWR VPWR FrameStrobe_O[3] sky130_fd_sc_hd__buf_2
Xoutput24 net24 VGND VGND VPWR VPWR FrameData_O[30] sky130_fd_sc_hd__buf_2
Xoutput57 net57 VGND VGND VPWR VPWR S2BEG[0] sky130_fd_sc_hd__buf_2
Xoutput13 net13 VGND VGND VPWR VPWR FrameData_O[20] sky130_fd_sc_hd__buf_2
Xoutput79 net79 VGND VGND VPWR VPWR S4BEG[15] sky130_fd_sc_hd__buf_2
Xoutput68 net68 VGND VGND VPWR VPWR S2BEGb[3] sky130_fd_sc_hd__buf_2
XFILLER_8_301 VGND VGND VPWR VPWR sky130_fd_sc_hd__decap_3
XFILLER_8_312 VGND VGND VPWR VPWR sky130_fd_sc_hd__decap_3
XFILLER_8_345 VGND VGND VPWR VPWR sky130_fd_sc_hd__decap_3
XFILLER_8_389 VGND VGND VPWR VPWR sky130_fd_sc_hd__decap_3
X_007_ FrameData[7] VGND VGND VPWR VPWR net30 sky130_fd_sc_hd__buf_1
XFILLER_7_81 VGND VGND VPWR VPWR sky130_fd_sc_hd__decap_3
XFILLER_5_326 VGND VGND VPWR VPWR sky130_fd_sc_hd__decap_3
XFILLER_5_337 VGND VGND VPWR VPWR sky130_fd_sc_hd__decap_3
XFILLER_3_28 VGND VGND VPWR VPWR sky130_fd_sc_hd__decap_3
XFILLER_5_348 VGND VGND VPWR VPWR sky130_fd_sc_hd__decap_3
XFILLER_8_153 VGND VGND VPWR VPWR sky130_fd_sc_hd__decap_3
XFILLER_8_164 VGND VGND VPWR VPWR sky130_fd_sc_hd__decap_3
XFILLER_8_197 VGND VGND VPWR VPWR sky130_fd_sc_hd__decap_3
XFILLER_4_392 VGND VGND VPWR VPWR sky130_fd_sc_hd__decap_3
XFILLER_2_329 VGND VGND VPWR VPWR sky130_fd_sc_hd__decap_3
XFILLER_5_9 VGND VGND VPWR VPWR sky130_fd_sc_hd__decap_3
XTAP_TAPCELL_ROW_11_114 VGND VPWR sky130_fd_sc_hd__tapvpwrvgnd_1
XFILLER_5_134 VGND VGND VPWR VPWR sky130_fd_sc_hd__decap_3
XFILLER_5_167 VGND VGND VPWR VPWR sky130_fd_sc_hd__fill_1
XFILLER_1_373 VGND VGND VPWR VPWR sky130_fd_sc_hd__decap_3
XFILLER_1_340 VGND VGND VPWR VPWR sky130_fd_sc_hd__decap_3
XFILLER_4_82 VGND VGND VPWR VPWR sky130_fd_sc_hd__fill_2
XFILLER_2_159 VGND VGND VPWR VPWR sky130_fd_sc_hd__decap_3
XFILLER_2_115 VGND VGND VPWR VPWR sky130_fd_sc_hd__decap_3
XFILLER_3_6 VGND VGND VPWR VPWR sky130_fd_sc_hd__decap_3
XFILLER_0_18 VGND VGND VPWR VPWR sky130_fd_sc_hd__decap_3
XFILLER_0_29 VGND VGND VPWR VPWR sky130_fd_sc_hd__decap_3
XFILLER_9_27 VGND VGND VPWR VPWR sky130_fd_sc_hd__decap_3
XFILLER_9_281 VGND VGND VPWR VPWR sky130_fd_sc_hd__decap_3
XFILLER_11_269 VGND VGND VPWR VPWR sky130_fd_sc_hd__decap_3
XFILLER_11_203 VGND VGND VPWR VPWR sky130_fd_sc_hd__fill_2
XFILLER_7_207 VGND VGND VPWR VPWR sky130_fd_sc_hd__decap_3
XFILLER_1_3 VGND VGND VPWR VPWR sky130_fd_sc_hd__decap_3
X_040_ FrameStrobe[8] VGND VGND VPWR VPWR net51 sky130_fd_sc_hd__clkbuf_1
XFILLER_10_280 VGND VGND VPWR VPWR sky130_fd_sc_hd__decap_3
XFILLER_6_262 VGND VGND VPWR VPWR sky130_fd_sc_hd__decap_3
XFILLER_1_72 VGND VGND VPWR VPWR sky130_fd_sc_hd__decap_3
X_023_ FrameData[23] VGND VGND VPWR VPWR net16 sky130_fd_sc_hd__buf_1
XFILLER_3_221 VGND VGND VPWR VPWR sky130_fd_sc_hd__decap_3
XFILLER_3_254 VGND VGND VPWR VPWR sky130_fd_sc_hd__decap_3
Xoutput25 net25 VGND VGND VPWR VPWR FrameData_O[31] sky130_fd_sc_hd__buf_2
Xoutput36 net36 VGND VGND VPWR VPWR FrameStrobe_O[12] sky130_fd_sc_hd__buf_2
Xoutput47 net47 VGND VGND VPWR VPWR FrameStrobe_O[4] sky130_fd_sc_hd__buf_2
Xoutput69 net69 VGND VGND VPWR VPWR S2BEGb[4] sky130_fd_sc_hd__buf_2
Xoutput58 net58 VGND VGND VPWR VPWR S2BEG[1] sky130_fd_sc_hd__buf_2
Xoutput14 net14 VGND VGND VPWR VPWR FrameData_O[21] sky130_fd_sc_hd__buf_2
X_006_ FrameData[6] VGND VGND VPWR VPWR net29 sky130_fd_sc_hd__buf_1
XFILLER_8_324 VGND VGND VPWR VPWR sky130_fd_sc_hd__decap_3
XFILLER_8_357 VGND VGND VPWR VPWR sky130_fd_sc_hd__decap_3
XFILLER_8_368 VGND VGND VPWR VPWR sky130_fd_sc_hd__decap_3
XFILLER_7_60 VGND VGND VPWR VPWR sky130_fd_sc_hd__decap_3
XFILLER_5_305 VGND VGND VPWR VPWR sky130_fd_sc_hd__decap_3
XFILLER_3_18 VGND VGND VPWR VPWR sky130_fd_sc_hd__fill_1
XFILLER_8_121 VGND VGND VPWR VPWR sky130_fd_sc_hd__decap_3
XFILLER_4_371 VGND VGND VPWR VPWR sky130_fd_sc_hd__decap_3
XFILLER_8_176 VGND VGND VPWR VPWR sky130_fd_sc_hd__decap_3
XFILLER_10_109 VGND VGND VPWR VPWR sky130_fd_sc_hd__decap_3
XTAP_TAPCELL_ROW_11_115 VGND VPWR sky130_fd_sc_hd__tapvpwrvgnd_1
XFILLER_5_102 VGND VGND VPWR VPWR sky130_fd_sc_hd__decap_3
XFILLER_5_113 VGND VGND VPWR VPWR sky130_fd_sc_hd__decap_3
XFILLER_1_385 VGND VGND VPWR VPWR sky130_fd_sc_hd__decap_3
XFILLER_1_352 VGND VGND VPWR VPWR sky130_fd_sc_hd__decap_3
XFILLER_4_61 VGND VGND VPWR VPWR sky130_fd_sc_hd__decap_3
XFILLER_4_94 VGND VGND VPWR VPWR sky130_fd_sc_hd__decap_3
XFILLER_4_190 VGND VGND VPWR VPWR sky130_fd_sc_hd__decap_3
XFILLER_2_127 VGND VGND VPWR VPWR sky130_fd_sc_hd__decap_3
XFILLER_9_39 VGND VGND VPWR VPWR sky130_fd_sc_hd__decap_3
XFILLER_1_182 VGND VGND VPWR VPWR sky130_fd_sc_hd__decap_3
XFILLER_9_260 VGND VGND VPWR VPWR sky130_fd_sc_hd__fill_2
XFILLER_9_293 VGND VGND VPWR VPWR sky130_fd_sc_hd__decap_3
XFILLER_11_259 VGND VGND VPWR VPWR sky130_fd_sc_hd__decap_3
XFILLER_11_215 VGND VGND VPWR VPWR sky130_fd_sc_hd__decap_3
XFILLER_7_219 VGND VGND VPWR VPWR sky130_fd_sc_hd__decap_3
XFILLER_10_292 VGND VGND VPWR VPWR sky130_fd_sc_hd__decap_3
XFILLER_6_241 VGND VGND VPWR VPWR sky130_fd_sc_hd__decap_3
XFILLER_6_274 VGND VGND VPWR VPWR sky130_fd_sc_hd__decap_3
X_099_ NN4END[4] VGND VGND VPWR VPWR net91 sky130_fd_sc_hd__clkbuf_1
XFILLER_1_51 VGND VGND VPWR VPWR sky130_fd_sc_hd__decap_3
XFILLER_1_84 VGND VGND VPWR VPWR sky130_fd_sc_hd__decap_3
XFILLER_3_200 VGND VGND VPWR VPWR sky130_fd_sc_hd__decap_3
XFILLER_6_18 VGND VGND VPWR VPWR sky130_fd_sc_hd__decap_3
XFILLER_6_29 VGND VGND VPWR VPWR sky130_fd_sc_hd__decap_3
X_022_ FrameData[22] VGND VGND VPWR VPWR net15 sky130_fd_sc_hd__buf_1
XFILLER_3_233 VGND VGND VPWR VPWR sky130_fd_sc_hd__decap_3
XFILLER_3_288 VGND VGND VPWR VPWR sky130_fd_sc_hd__fill_1
XFILLER_3_299 VGND VGND VPWR VPWR sky130_fd_sc_hd__fill_1
XFILLER_10_71 VGND VGND VPWR VPWR sky130_fd_sc_hd__decap_3
Xoutput37 net37 VGND VGND VPWR VPWR FrameStrobe_O[13] sky130_fd_sc_hd__buf_2
Xoutput48 net48 VGND VGND VPWR VPWR FrameStrobe_O[5] sky130_fd_sc_hd__buf_2
XPHY_EDGE_ROW_1_Right_1 VGND VGND VPWR VPWR sky130_fd_sc_hd__decap_3
Xoutput26 net26 VGND VGND VPWR VPWR FrameData_O[3] sky130_fd_sc_hd__buf_2
Xoutput59 net59 VGND VGND VPWR VPWR S2BEG[2] sky130_fd_sc_hd__buf_2
Xoutput15 net15 VGND VGND VPWR VPWR FrameData_O[22] sky130_fd_sc_hd__buf_2
XFILLER_8_336 VGND VGND VPWR VPWR sky130_fd_sc_hd__decap_3
X_005_ FrameData[5] VGND VGND VPWR VPWR net28 sky130_fd_sc_hd__buf_1
XFILLER_7_72 VGND VGND VPWR VPWR sky130_fd_sc_hd__decap_3
XFILLER_7_391 VGND VGND VPWR VPWR sky130_fd_sc_hd__fill_1
XFILLER_5_317 VGND VGND VPWR VPWR sky130_fd_sc_hd__decap_3
XFILLER_8_133 VGND VGND VPWR VPWR sky130_fd_sc_hd__decap_3
XFILLER_8_144 VGND VGND VPWR VPWR sky130_fd_sc_hd__decap_3
XFILLER_8_188 VGND VGND VPWR VPWR sky130_fd_sc_hd__decap_3
XFILLER_4_361 VGND VGND VPWR VPWR sky130_fd_sc_hd__decap_3
XFILLER_4_383 VGND VGND VPWR VPWR sky130_fd_sc_hd__decap_3
XTAP_TAPCELL_ROW_11_116 VGND VPWR sky130_fd_sc_hd__tapvpwrvgnd_1
XFILLER_5_125 VGND VGND VPWR VPWR sky130_fd_sc_hd__decap_3
XFILLER_5_158 VGND VGND VPWR VPWR sky130_fd_sc_hd__decap_3
XFILLER_5_169 VGND VGND VPWR VPWR sky130_fd_sc_hd__decap_3
XFILLER_1_364 VGND VGND VPWR VPWR sky130_fd_sc_hd__decap_3
XFILLER_4_40 VGND VGND VPWR VPWR sky130_fd_sc_hd__decap_3
XFILLER_4_73 VGND VGND VPWR VPWR sky130_fd_sc_hd__decap_3
XFILLER_2_139 VGND VGND VPWR VPWR sky130_fd_sc_hd__fill_1
XFILLER_2_106 VGND VGND VPWR VPWR sky130_fd_sc_hd__decap_3
XFILLER_9_18 VGND VGND VPWR VPWR sky130_fd_sc_hd__decap_3
XTAP_TAPCELL_ROW_0_30 VGND VPWR sky130_fd_sc_hd__tapvpwrvgnd_1
XFILLER_1_194 VGND VGND VPWR VPWR sky130_fd_sc_hd__decap_3
XFILLER_1_172 VGND VGND VPWR VPWR sky130_fd_sc_hd__decap_3
XFILLER_1_161 VGND VGND VPWR VPWR sky130_fd_sc_hd__decap_3
XTAP_TAPCELL_ROW_9_94 VGND VPWR sky130_fd_sc_hd__tapvpwrvgnd_1
XFILLER_11_249 VGND VGND VPWR VPWR sky130_fd_sc_hd__decap_3
XFILLER_11_238 VGND VGND VPWR VPWR sky130_fd_sc_hd__decap_3
XFILLER_10_271 VGND VGND VPWR VPWR sky130_fd_sc_hd__decap_3
X_098_ NN4END[5] VGND VGND VPWR VPWR net90 sky130_fd_sc_hd__clkbuf_1
XFILLER_6_253 VGND VGND VPWR VPWR sky130_fd_sc_hd__decap_3
XFILLER_6_286 VGND VGND VPWR VPWR sky130_fd_sc_hd__decap_3
XFILLER_6_297 VGND VGND VPWR VPWR sky130_fd_sc_hd__decap_3
XFILLER_1_30 VGND VGND VPWR VPWR sky130_fd_sc_hd__decap_3
XFILLER_1_63 VGND VGND VPWR VPWR sky130_fd_sc_hd__decap_3
XFILLER_1_96 VGND VGND VPWR VPWR sky130_fd_sc_hd__decap_3
XFILLER_3_212 VGND VGND VPWR VPWR sky130_fd_sc_hd__decap_3
XFILLER_3_245 VGND VGND VPWR VPWR sky130_fd_sc_hd__decap_3
X_021_ FrameData[21] VGND VGND VPWR VPWR net14 sky130_fd_sc_hd__buf_1
XFILLER_10_50 VGND VGND VPWR VPWR sky130_fd_sc_hd__decap_3
XFILLER_10_83 VGND VGND VPWR VPWR sky130_fd_sc_hd__fill_1
XFILLER_10_94 VGND VGND VPWR VPWR sky130_fd_sc_hd__decap_3
XTAP_TAPCELL_ROW_6_73 VGND VPWR sky130_fd_sc_hd__tapvpwrvgnd_1
XPHY_EDGE_ROW_11_Left_23 VGND VGND VPWR VPWR sky130_fd_sc_hd__decap_3
Xoutput38 net38 VGND VGND VPWR VPWR FrameStrobe_O[14] sky130_fd_sc_hd__buf_2
Xoutput49 net49 VGND VGND VPWR VPWR FrameStrobe_O[6] sky130_fd_sc_hd__buf_2
Xoutput16 net16 VGND VGND VPWR VPWR FrameData_O[23] sky130_fd_sc_hd__buf_2
Xoutput27 net27 VGND VGND VPWR VPWR FrameData_O[4] sky130_fd_sc_hd__buf_2
XFILLER_8_304 VGND VGND VPWR VPWR sky130_fd_sc_hd__decap_3
XFILLER_8_315 VGND VGND VPWR VPWR sky130_fd_sc_hd__decap_3
XFILLER_8_348 VGND VGND VPWR VPWR sky130_fd_sc_hd__decap_3
X_004_ FrameData[4] VGND VGND VPWR VPWR net27 sky130_fd_sc_hd__buf_1
XFILLER_7_51 VGND VGND VPWR VPWR sky130_fd_sc_hd__decap_3
XFILLER_7_84 VGND VGND VPWR VPWR sky130_fd_sc_hd__decap_3
XFILLER_7_95 VGND VGND VPWR VPWR sky130_fd_sc_hd__decap_3
XFILLER_7_370 VGND VGND VPWR VPWR sky130_fd_sc_hd__decap_3
XFILLER_5_329 VGND VGND VPWR VPWR sky130_fd_sc_hd__decap_3
XTAP_TAPCELL_ROW_3_52 VGND VPWR sky130_fd_sc_hd__tapvpwrvgnd_1
XFILLER_8_112 VGND VGND VPWR VPWR sky130_fd_sc_hd__decap_3
XFILLER_8_156 VGND VGND VPWR VPWR sky130_fd_sc_hd__decap_3
XFILLER_8_167 VGND VGND VPWR VPWR sky130_fd_sc_hd__decap_3