* NGSPICE file created from W_term_single.ext - technology: sky130A

* Black-box entry subcircuit for sky130_fd_sc_hd__decap_3 abstract view
.subckt sky130_fd_sc_hd__decap_3 VGND VNB VPB VPWR
.ends

* Black-box entry subcircuit for sky130_fd_sc_hd__tapvpwrvgnd_1 abstract view
.subckt sky130_fd_sc_hd__tapvpwrvgnd_1 VGND VPWR
.ends

* Black-box entry subcircuit for sky130_fd_sc_hd__buf_1 abstract view
.subckt sky130_fd_sc_hd__buf_1 A VGND VNB VPB VPWR X
.ends

* Black-box entry subcircuit for sky130_fd_sc_hd__clkbuf_1 abstract view
.subckt sky130_fd_sc_hd__clkbuf_1 A VGND VNB VPB VPWR X
.ends

* Black-box entry subcircuit for sky130_fd_sc_hd__fill_2 abstract view
.subckt sky130_fd_sc_hd__fill_2 VGND VNB VPB VPWR
.ends

* Black-box entry subcircuit for sky130_fd_sc_hd__diode_2 abstract view
.subckt sky130_fd_sc_hd__diode_2 DIODE VGND VNB VPB VPWR
.ends

* Black-box entry subcircuit for sky130_fd_sc_hd__buf_2 abstract view
.subckt sky130_fd_sc_hd__buf_2 A VGND VNB VPB VPWR X
.ends

* Black-box entry subcircuit for sky130_fd_sc_hd__fill_1 abstract view
.subckt sky130_fd_sc_hd__fill_1 VGND VNB VPB VPWR
.ends

.subckt W_term_single E1BEG[0] E1BEG[1] E1BEG[2] E1BEG[3] E2BEG[0] E2BEG[1] E2BEG[2]
+ E2BEG[3] E2BEG[4] E2BEG[5] E2BEG[6] E2BEG[7] E2BEGb[0] E2BEGb[1] E2BEGb[2] E2BEGb[3]
+ E2BEGb[4] E2BEGb[5] E2BEGb[6] E2BEGb[7] E6BEG[0] E6BEG[10] E6BEG[11] E6BEG[1] E6BEG[2]
+ E6BEG[3] E6BEG[4] E6BEG[5] E6BEG[6] E6BEG[7] E6BEG[8] E6BEG[9] EE4BEG[0] EE4BEG[10]
+ EE4BEG[11] EE4BEG[12] EE4BEG[13] EE4BEG[14] EE4BEG[15] EE4BEG[1] EE4BEG[2] EE4BEG[3]
+ EE4BEG[4] EE4BEG[5] EE4BEG[6] EE4BEG[7] EE4BEG[8] EE4BEG[9] FrameData[0] FrameData[10]
+ FrameData[11] FrameData[12] FrameData[13] FrameData[14] FrameData[15] FrameData[16]
+ FrameData[17] FrameData[18] FrameData[19] FrameData[1] FrameData[20] FrameData[21]
+ FrameData[22] FrameData[23] FrameData[24] FrameData[25] FrameData[26] FrameData[27]
+ FrameData[28] FrameData[29] FrameData[2] FrameData[30] FrameData[31] FrameData[3]
+ FrameData[4] FrameData[5] FrameData[6] FrameData[7] FrameData[8] FrameData[9] FrameData_O[0]
+ FrameData_O[10] FrameData_O[11] FrameData_O[12] FrameData_O[13] FrameData_O[14]
+ FrameData_O[15] FrameData_O[16] FrameData_O[17] FrameData_O[18] FrameData_O[19]
+ FrameData_O[1] FrameData_O[20] FrameData_O[21] FrameData_O[22] FrameData_O[23] FrameData_O[24]
+ FrameData_O[25] FrameData_O[26] FrameData_O[27] FrameData_O[28] FrameData_O[29]
+ FrameData_O[2] FrameData_O[30] FrameData_O[31] FrameData_O[3] FrameData_O[4] FrameData_O[5]
+ FrameData_O[6] FrameData_O[7] FrameData_O[8] FrameData_O[9] FrameStrobe[0] FrameStrobe[10]
+ FrameStrobe[11] FrameStrobe[12] FrameStrobe[13] FrameStrobe[14] FrameStrobe[15]
+ FrameStrobe[16] FrameStrobe[17] FrameStrobe[18] FrameStrobe[19] FrameStrobe[1] FrameStrobe[2]
+ FrameStrobe[3] FrameStrobe[4] FrameStrobe[5] FrameStrobe[6] FrameStrobe[7] FrameStrobe[8]
+ FrameStrobe[9] FrameStrobe_O[0] FrameStrobe_O[10] FrameStrobe_O[11] FrameStrobe_O[12]
+ FrameStrobe_O[13] FrameStrobe_O[14] FrameStrobe_O[15] FrameStrobe_O[16] FrameStrobe_O[17]
+ FrameStrobe_O[18] FrameStrobe_O[19] FrameStrobe_O[1] FrameStrobe_O[2] FrameStrobe_O[3]
+ FrameStrobe_O[4] FrameStrobe_O[5] FrameStrobe_O[6] FrameStrobe_O[7] FrameStrobe_O[8]
+ FrameStrobe_O[9] UserCLK UserCLKo VGND VPWR W1END[0] W1END[1] W1END[2] W1END[3]
+ W2END[0] W2END[1] W2END[2] W2END[3] W2END[4] W2END[5] W2END[6] W2END[7] W2MID[0]
+ W2MID[1] W2MID[2] W2MID[3] W2MID[4] W2MID[5] W2MID[6] W2MID[7] W6END[0] W6END[10]
+ W6END[11] W6END[1] W6END[2] W6END[3] W6END[4] W6END[5] W6END[6] W6END[7] W6END[8]
+ W6END[9] WW4END[0] WW4END[10] WW4END[11] WW4END[12] WW4END[13] WW4END[14] WW4END[15]
+ WW4END[1] WW4END[2] WW4END[3] WW4END[4] WW4END[5] WW4END[6] WW4END[7] WW4END[8]
+ WW4END[9]
XFILLER_52_29 VGND VGND VPWR VPWR sky130_fd_sc_hd__decap_3
XFILLER_52_18 VGND VGND VPWR VPWR sky130_fd_sc_hd__decap_3
XFILLER_26_41 VGND VGND VPWR VPWR sky130_fd_sc_hd__decap_3
XFILLER_26_74 VGND VGND VPWR VPWR sky130_fd_sc_hd__decap_3
XTAP_TAPCELL_ROW_23_172 VGND VPWR sky130_fd_sc_hd__tapvpwrvgnd_1
XFILLER_42_62 VGND VGND VPWR VPWR sky130_fd_sc_hd__decap_3
XFILLER_54_9 VGND VGND VPWR VPWR sky130_fd_sc_hd__decap_3
XFILLER_3_45 VGND VGND VPWR VPWR sky130_fd_sc_hd__decap_3
XFILLER_3_12 VGND VGND VPWR VPWR sky130_fd_sc_hd__decap_3
XFILLER_47_18 VGND VGND VPWR VPWR sky130_fd_sc_hd__decap_3
XFILLER_63_17 VGND VGND VPWR VPWR sky130_fd_sc_hd__decap_3
XTAP_TAPCELL_ROW_52_201 VGND VPWR sky130_fd_sc_hd__tapvpwrvgnd_1
XFILLER_12_32 VGND VGND VPWR VPWR sky130_fd_sc_hd__decap_3
XFILLER_12_21 VGND VGND VPWR VPWR sky130_fd_sc_hd__decap_3
XFILLER_37_51 VGND VGND VPWR VPWR sky130_fd_sc_hd__decap_3
XFILLER_53_50 VGND VGND VPWR VPWR sky130_fd_sc_hd__decap_3
XFILLER_52_6 VGND VGND VPWR VPWR sky130_fd_sc_hd__decap_3
XPHY_EDGE_ROW_20_Left_94 VGND VGND VPWR VPWR sky130_fd_sc_hd__decap_3
XFILLER_23_42 VGND VGND VPWR VPWR sky130_fd_sc_hd__decap_3
XFILLER_23_75 VGND VGND VPWR VPWR sky130_fd_sc_hd__decap_3
X_062_ FrameData[14] VGND VGND VPWR VPWR net54 sky130_fd_sc_hd__buf_1
XFILLER_48_50 VGND VGND VPWR VPWR sky130_fd_sc_hd__decap_3
XFILLER_0_24 VGND VGND VPWR VPWR sky130_fd_sc_hd__decap_3
XFILLER_0_35 VGND VGND VPWR VPWR sky130_fd_sc_hd__decap_3
XFILLER_0_57 VGND VGND VPWR VPWR sky130_fd_sc_hd__decap_3
XFILLER_17_9 VGND VGND VPWR VPWR sky130_fd_sc_hd__decap_3
XFILLER_9_66 VGND VGND VPWR VPWR sky130_fd_sc_hd__decap_3
XFILLER_9_33 VGND VGND VPWR VPWR sky130_fd_sc_hd__decap_3
XFILLER_50_3 VGND VGND VPWR VPWR sky130_fd_sc_hd__decap_3
XFILLER_60_29 VGND VGND VPWR VPWR sky130_fd_sc_hd__decap_3
XFILLER_69_27 VGND VGND VPWR VPWR sky130_fd_sc_hd__decap_3
XFILLER_18_53 VGND VGND VPWR VPWR sky130_fd_sc_hd__decap_3
XFILLER_18_75 VGND VGND VPWR VPWR sky130_fd_sc_hd__decap_3
XFILLER_34_41 VGND VGND VPWR VPWR sky130_fd_sc_hd__decap_3
X_045_ WW4END[2] VGND VGND VPWR VPWR net37 sky130_fd_sc_hd__clkbuf_1
XFILLER_50_62 VGND VGND VPWR VPWR sky130_fd_sc_hd__decap_3
XFILLER_59_60 VGND VGND VPWR VPWR sky130_fd_sc_hd__decap_3
XFILLER_15_6 VGND VGND VPWR VPWR sky130_fd_sc_hd__decap_3
XFILLER_39_19 VGND VGND VPWR VPWR sky130_fd_sc_hd__decap_3
XFILLER_71_39 VGND VGND VPWR VPWR sky130_fd_sc_hd__decap_3
XPHY_EDGE_ROW_33_Left_107 VGND VGND VPWR VPWR sky130_fd_sc_hd__decap_3
XFILLER_20_21 VGND VGND VPWR VPWR sky130_fd_sc_hd__decap_3
XFILLER_20_32 VGND VGND VPWR VPWR sky130_fd_sc_hd__decap_3
XFILLER_20_65 VGND VGND VPWR VPWR sky130_fd_sc_hd__decap_3
XFILLER_20_76 VGND VGND VPWR VPWR sky130_fd_sc_hd__decap_3
XFILLER_29_30 VGND VGND VPWR VPWR sky130_fd_sc_hd__decap_3
XFILLER_29_41 VGND VGND VPWR VPWR sky130_fd_sc_hd__decap_3
XFILLER_29_63 VGND VGND VPWR VPWR sky130_fd_sc_hd__decap_3
XPHY_EDGE_ROW_42_Left_116 VGND VGND VPWR VPWR sky130_fd_sc_hd__decap_3
XFILLER_45_51 VGND VGND VPWR VPWR sky130_fd_sc_hd__decap_3
XPHY_EDGE_ROW_51_Left_125 VGND VGND VPWR VPWR sky130_fd_sc_hd__decap_3
XFILLER_6_12 VGND VGND VPWR VPWR sky130_fd_sc_hd__decap_3
XPHY_EDGE_ROW_60_Left_134 VGND VGND VPWR VPWR sky130_fd_sc_hd__decap_3
XFILLER_6_78 VGND VGND VPWR VPWR sky130_fd_sc_hd__fill_2
X_028_ W6END[3] VGND VGND VPWR VPWR net31 sky130_fd_sc_hd__clkbuf_1
XANTENNA_5 FrameStrobe[18] VGND VGND VPWR VPWR sky130_fd_sc_hd__diode_2
XFILLER_13_3 VGND VGND VPWR VPWR sky130_fd_sc_hd__decap_3
XFILLER_15_21 VGND VGND VPWR VPWR sky130_fd_sc_hd__decap_3
XFILLER_15_54 VGND VGND VPWR VPWR sky130_fd_sc_hd__fill_2
XFILLER_15_76 VGND VGND VPWR VPWR sky130_fd_sc_hd__decap_3
XFILLER_31_42 VGND VGND VPWR VPWR sky130_fd_sc_hd__decap_3
Xoutput64 net64 VGND VGND VPWR VPWR FrameData_O[23] sky130_fd_sc_hd__buf_2
Xoutput53 net53 VGND VGND VPWR VPWR FrameData_O[13] sky130_fd_sc_hd__buf_2
Xoutput75 net75 VGND VGND VPWR VPWR FrameData_O[4] sky130_fd_sc_hd__buf_2
Xoutput31 net31 VGND VGND VPWR VPWR E6BEG[8] sky130_fd_sc_hd__buf_2
XFILLER_31_64 VGND VGND VPWR VPWR sky130_fd_sc_hd__decap_3
Xoutput7 net7 VGND VGND VPWR VPWR E2BEG[2] sky130_fd_sc_hd__buf_2
Xoutput20 net20 VGND VGND VPWR VPWR E2BEGb[7] sky130_fd_sc_hd__buf_2
Xoutput42 net42 VGND VGND VPWR VPWR EE4BEG[3] sky130_fd_sc_hd__buf_2
Xoutput86 net86 VGND VGND VPWR VPWR FrameStrobe_O[14] sky130_fd_sc_hd__buf_2
Xoutput97 net97 VGND VGND VPWR VPWR FrameStrobe_O[6] sky130_fd_sc_hd__buf_2
XFILLER_56_50 VGND VGND VPWR VPWR sky130_fd_sc_hd__decap_3
XFILLER_26_53 VGND VGND VPWR VPWR sky130_fd_sc_hd__decap_3
XFILLER_42_41 VGND VGND VPWR VPWR sky130_fd_sc_hd__decap_3
XFILLER_67_60 VGND VGND VPWR VPWR sky130_fd_sc_hd__decap_3
XFILLER_3_79 VGND VGND VPWR VPWR sky130_fd_sc_hd__fill_1
XFILLER_3_57 VGND VGND VPWR VPWR sky130_fd_sc_hd__decap_3
XFILLER_3_24 VGND VGND VPWR VPWR sky130_fd_sc_hd__decap_3
XFILLER_47_9 VGND VGND VPWR VPWR sky130_fd_sc_hd__decap_3
XFILLER_63_29 VGND VGND VPWR VPWR sky130_fd_sc_hd__decap_3
XFILLER_12_77 VGND VGND VPWR VPWR sky130_fd_sc_hd__decap_3
XFILLER_12_44 VGND VGND VPWR VPWR sky130_fd_sc_hd__decap_3
XFILLER_37_30 VGND VGND VPWR VPWR sky130_fd_sc_hd__decap_3
XFILLER_37_63 VGND VGND VPWR VPWR sky130_fd_sc_hd__fill_1
XFILLER_45_6 VGND VGND VPWR VPWR sky130_fd_sc_hd__decap_3
XFILLER_58_29 VGND VGND VPWR VPWR sky130_fd_sc_hd__decap_3
XPHY_EDGE_ROW_12_Right_12 VGND VGND VPWR VPWR sky130_fd_sc_hd__decap_3
XPHY_EDGE_ROW_21_Right_21 VGND VGND VPWR VPWR sky130_fd_sc_hd__decap_3
XFILLER_23_21 VGND VGND VPWR VPWR sky130_fd_sc_hd__decap_3
XFILLER_23_54 VGND VGND VPWR VPWR sky130_fd_sc_hd__fill_2
XPHY_EDGE_ROW_30_Right_30 VGND VGND VPWR VPWR sky130_fd_sc_hd__decap_3
X_061_ FrameData[13] VGND VGND VPWR VPWR net53 sky130_fd_sc_hd__buf_1
XFILLER_48_62 VGND VGND VPWR VPWR sky130_fd_sc_hd__decap_3
XFILLER_64_50 VGND VGND VPWR VPWR sky130_fd_sc_hd__decap_3
XFILLER_9_12 VGND VGND VPWR VPWR sky130_fd_sc_hd__decap_3
XFILLER_0_47 VGND VGND VPWR VPWR sky130_fd_sc_hd__decap_3
XFILLER_0_69 VGND VGND VPWR VPWR sky130_fd_sc_hd__decap_3
XFILLER_9_78 VGND VGND VPWR VPWR sky130_fd_sc_hd__fill_2
XFILLER_9_45 VGND VGND VPWR VPWR sky130_fd_sc_hd__decap_3
XFILLER_43_3 VGND VGND VPWR VPWR sky130_fd_sc_hd__decap_3
XFILLER_69_39 VGND VGND VPWR VPWR sky130_fd_sc_hd__decap_3
XFILLER_18_21 VGND VGND VPWR VPWR sky130_fd_sc_hd__decap_3
XFILLER_18_32 VGND VGND VPWR VPWR sky130_fd_sc_hd__decap_3
XFILLER_18_65 VGND VGND VPWR VPWR sky130_fd_sc_hd__decap_3
XFILLER_34_53 VGND VGND VPWR VPWR sky130_fd_sc_hd__decap_3
XFILLER_34_64 VGND VGND VPWR VPWR sky130_fd_sc_hd__decap_3
XFILLER_50_41 VGND VGND VPWR VPWR sky130_fd_sc_hd__decap_3
X_044_ WW4END[3] VGND VGND VPWR VPWR net36 sky130_fd_sc_hd__clkbuf_1
XFILLER_55_19 VGND VGND VPWR VPWR sky130_fd_sc_hd__decap_3
XFILLER_71_18 VGND VGND VPWR VPWR sky130_fd_sc_hd__decap_3
XFILLER_20_44 VGND VGND VPWR VPWR sky130_fd_sc_hd__decap_3
XFILLER_29_53 VGND VGND VPWR VPWR sky130_fd_sc_hd__decap_3
XFILLER_29_75 VGND VGND VPWR VPWR sky130_fd_sc_hd__decap_3
XFILLER_45_30 VGND VGND VPWR VPWR sky130_fd_sc_hd__decap_3
XFILLER_45_63 VGND VGND VPWR VPWR sky130_fd_sc_hd__decap_3
XFILLER_61_51 VGND VGND VPWR VPWR sky130_fd_sc_hd__decap_3
XFILLER_6_57 VGND VGND VPWR VPWR sky130_fd_sc_hd__decap_3
XFILLER_6_35 VGND VGND VPWR VPWR sky130_fd_sc_hd__decap_3
XFILLER_6_24 VGND VGND VPWR VPWR sky130_fd_sc_hd__decap_3
XANTENNA_6 FrameStrobe[7] VGND VGND VPWR VPWR sky130_fd_sc_hd__diode_2
X_027_ W6END[4] VGND VGND VPWR VPWR net30 sky130_fd_sc_hd__clkbuf_1
XTAP_TAPCELL_ROW_44_193 VGND VPWR sky130_fd_sc_hd__tapvpwrvgnd_1
XPHY_EDGE_ROW_6_Right_6 VGND VGND VPWR VPWR sky130_fd_sc_hd__decap_3
XFILLER_66_29 VGND VGND VPWR VPWR sky130_fd_sc_hd__decap_3
XTAP_TAPCELL_ROW_59_208 VGND VPWR sky130_fd_sc_hd__tapvpwrvgnd_1
XFILLER_15_33 VGND VGND VPWR VPWR sky130_fd_sc_hd__decap_3
XFILLER_31_21 VGND VGND VPWR VPWR sky130_fd_sc_hd__decap_3
XFILLER_31_54 VGND VGND VPWR VPWR sky130_fd_sc_hd__fill_2
Xoutput87 net87 VGND VGND VPWR VPWR FrameStrobe_O[15] sky130_fd_sc_hd__buf_2
Xoutput98 net98 VGND VGND VPWR VPWR FrameStrobe_O[7] sky130_fd_sc_hd__buf_2
Xoutput65 net65 VGND VGND VPWR VPWR FrameData_O[24] sky130_fd_sc_hd__buf_2
Xoutput54 net54 VGND VGND VPWR VPWR FrameData_O[14] sky130_fd_sc_hd__buf_2
Xoutput76 net76 VGND VGND VPWR VPWR FrameData_O[5] sky130_fd_sc_hd__buf_2
Xoutput32 net32 VGND VGND VPWR VPWR E6BEG[9] sky130_fd_sc_hd__buf_2
Xoutput10 net10 VGND VGND VPWR VPWR E2BEG[5] sky130_fd_sc_hd__buf_2
Xoutput8 net8 VGND VGND VPWR VPWR E2BEG[3] sky130_fd_sc_hd__buf_2
Xoutput43 net43 VGND VGND VPWR VPWR EE4BEG[4] sky130_fd_sc_hd__buf_2
Xoutput21 net21 VGND VGND VPWR VPWR E6BEG[0] sky130_fd_sc_hd__buf_2
XTAP_TAPCELL_ROW_73_222 VGND VPWR sky130_fd_sc_hd__tapvpwrvgnd_1
XFILLER_56_62 VGND VGND VPWR VPWR sky130_fd_sc_hd__decap_3
XFILLER_72_50 VGND VGND VPWR VPWR sky130_fd_sc_hd__decap_3
XPHY_EDGE_ROW_59_Right_59 VGND VGND VPWR VPWR sky130_fd_sc_hd__decap_3
XPHY_EDGE_ROW_68_Right_68 VGND VGND VPWR VPWR sky130_fd_sc_hd__decap_3
XFILLER_7_9 VGND VGND VPWR VPWR sky130_fd_sc_hd__decap_3
XFILLER_26_21 VGND VGND VPWR VPWR sky130_fd_sc_hd__decap_3
XFILLER_26_32 VGND VGND VPWR VPWR sky130_fd_sc_hd__decap_3
XFILLER_26_65 VGND VGND VPWR VPWR sky130_fd_sc_hd__decap_3
XFILLER_42_53 VGND VGND VPWR VPWR sky130_fd_sc_hd__decap_3
XFILLER_3_36 VGND VGND VPWR VPWR sky130_fd_sc_hd__decap_3
XTAP_TAPCELL_ROW_14_163 VGND VPWR sky130_fd_sc_hd__tapvpwrvgnd_1
XFILLER_12_56 VGND VGND VPWR VPWR sky130_fd_sc_hd__decap_3
XFILLER_12_12 VGND VGND VPWR VPWR sky130_fd_sc_hd__decap_3
XFILLER_5_6 VGND VGND VPWR VPWR sky130_fd_sc_hd__decap_3
XFILLER_37_20 VGND VGND VPWR VPWR sky130_fd_sc_hd__decap_3
XFILLER_37_42 VGND VGND VPWR VPWR sky130_fd_sc_hd__decap_3
XFILLER_53_63 VGND VGND VPWR VPWR sky130_fd_sc_hd__decap_3
XFILLER_53_41 VGND VGND VPWR VPWR sky130_fd_sc_hd__decap_3
XFILLER_38_6 VGND VGND VPWR VPWR sky130_fd_sc_hd__decap_3
XFILLER_58_19 VGND VGND VPWR VPWR sky130_fd_sc_hd__decap_3
XFILLER_23_33 VGND VGND VPWR VPWR sky130_fd_sc_hd__decap_3
XFILLER_23_66 VGND VGND VPWR VPWR sky130_fd_sc_hd__decap_3
XFILLER_3_3 VGND VGND VPWR VPWR sky130_fd_sc_hd__decap_3
X_060_ FrameData[12] VGND VGND VPWR VPWR net52 sky130_fd_sc_hd__buf_1
XFILLER_0_15 VGND VGND VPWR VPWR sky130_fd_sc_hd__decap_3
XFILLER_48_41 VGND VGND VPWR VPWR sky130_fd_sc_hd__decap_3
XFILLER_64_62 VGND VGND VPWR VPWR sky130_fd_sc_hd__decap_3
XFILLER_9_24 VGND VGND VPWR VPWR sky130_fd_sc_hd__decap_3
XFILLER_9_57 VGND VGND VPWR VPWR sky130_fd_sc_hd__decap_3
XFILLER_36_3 VGND VGND VPWR VPWR sky130_fd_sc_hd__decap_3
XFILLER_69_18 VGND VGND VPWR VPWR sky130_fd_sc_hd__decap_3
XFILLER_18_44 VGND VGND VPWR VPWR sky130_fd_sc_hd__decap_3
XFILLER_34_21 VGND VGND VPWR VPWR sky130_fd_sc_hd__decap_3
XFILLER_34_32 VGND VGND VPWR VPWR sky130_fd_sc_hd__decap_3
X_043_ WW4END[4] VGND VGND VPWR VPWR net35 sky130_fd_sc_hd__clkbuf_1
XFILLER_50_53 VGND VGND VPWR VPWR sky130_fd_sc_hd__decap_3
XFILLER_59_51 VGND VGND VPWR VPWR sky130_fd_sc_hd__decap_3
XFILLER_20_12 VGND VGND VPWR VPWR sky130_fd_sc_hd__decap_3
XFILLER_20_56 VGND VGND VPWR VPWR sky130_fd_sc_hd__decap_3
XFILLER_29_21 VGND VGND VPWR VPWR sky130_fd_sc_hd__decap_3
XFILLER_61_30 VGND VGND VPWR VPWR sky130_fd_sc_hd__decap_3
XFILLER_45_42 VGND VGND VPWR VPWR sky130_fd_sc_hd__decap_3
XFILLER_61_63 VGND VGND VPWR VPWR sky130_fd_sc_hd__decap_3
X_026_ W6END[5] VGND VGND VPWR VPWR net29 sky130_fd_sc_hd__clkbuf_1
XFILLER_6_69 VGND VGND VPWR VPWR sky130_fd_sc_hd__decap_3
XFILLER_6_47 VGND VGND VPWR VPWR sky130_fd_sc_hd__decap_3
XANTENNA_7 W2END[0] VGND VGND VPWR VPWR sky130_fd_sc_hd__diode_2
XFILLER_15_12 VGND VGND VPWR VPWR sky130_fd_sc_hd__decap_3
XFILLER_15_45 VGND VGND VPWR VPWR sky130_fd_sc_hd__decap_3
XFILLER_15_67 VGND VGND VPWR VPWR sky130_fd_sc_hd__decap_3
XFILLER_31_33 VGND VGND VPWR VPWR sky130_fd_sc_hd__decap_3
Xoutput88 net88 VGND VGND VPWR VPWR FrameStrobe_O[16] sky130_fd_sc_hd__buf_2
Xoutput99 net99 VGND VGND VPWR VPWR FrameStrobe_O[8] sky130_fd_sc_hd__buf_2
Xoutput66 net66 VGND VGND VPWR VPWR FrameData_O[25] sky130_fd_sc_hd__buf_2
Xoutput55 net55 VGND VGND VPWR VPWR FrameData_O[15] sky130_fd_sc_hd__buf_2
Xoutput77 net77 VGND VGND VPWR VPWR FrameData_O[6] sky130_fd_sc_hd__buf_2
Xoutput22 net22 VGND VGND VPWR VPWR E6BEG[10] sky130_fd_sc_hd__buf_2
Xoutput9 net9 VGND VGND VPWR VPWR E2BEG[4] sky130_fd_sc_hd__buf_2
Xoutput11 net11 VGND VGND VPWR VPWR E2BEG[6] sky130_fd_sc_hd__buf_2
Xoutput33 net33 VGND VGND VPWR VPWR EE4BEG[0] sky130_fd_sc_hd__buf_2
Xoutput44 net44 VGND VGND VPWR VPWR EE4BEG[5] sky130_fd_sc_hd__buf_2
XTAP_TAPCELL_ROW_73_223 VGND VPWR sky130_fd_sc_hd__tapvpwrvgnd_1
XFILLER_56_41 VGND VGND VPWR VPWR sky130_fd_sc_hd__decap_3
XFILLER_72_62 VGND VGND VPWR VPWR sky130_fd_sc_hd__decap_3
XFILLER_68_6 VGND VGND VPWR VPWR sky130_fd_sc_hd__decap_3
X_009_ W2MID[2] VGND VGND VPWR VPWR net10 sky130_fd_sc_hd__buf_1
XFILLER_26_44 VGND VGND VPWR VPWR sky130_fd_sc_hd__decap_3
XFILLER_26_77 VGND VGND VPWR VPWR sky130_fd_sc_hd__decap_3
XFILLER_42_10 VGND VGND VPWR VPWR sky130_fd_sc_hd__decap_3
XFILLER_42_32 VGND VGND VPWR VPWR sky130_fd_sc_hd__decap_3
XFILLER_42_65 VGND VGND VPWR VPWR sky130_fd_sc_hd__fill_1
XPHY_EDGE_ROW_39_Left_113 VGND VGND VPWR VPWR sky130_fd_sc_hd__decap_3
XFILLER_67_51 VGND VGND VPWR VPWR sky130_fd_sc_hd__decap_3
XFILLER_3_48 VGND VGND VPWR VPWR sky130_fd_sc_hd__decap_3
XFILLER_3_15 VGND VGND VPWR VPWR sky130_fd_sc_hd__decap_3
XPHY_EDGE_ROW_48_Left_122 VGND VGND VPWR VPWR sky130_fd_sc_hd__decap_3
XFILLER_66_3 VGND VGND VPWR VPWR sky130_fd_sc_hd__decap_3
XPHY_EDGE_ROW_57_Left_131 VGND VGND VPWR VPWR sky130_fd_sc_hd__decap_3
XPHY_EDGE_ROW_66_Left_140 VGND VGND VPWR VPWR sky130_fd_sc_hd__decap_3
XFILLER_12_68 VGND VGND VPWR VPWR sky130_fd_sc_hd__decap_3
XFILLER_12_35 VGND VGND VPWR VPWR sky130_fd_sc_hd__decap_3
XFILLER_12_24 VGND VGND VPWR VPWR sky130_fd_sc_hd__decap_3
XTAP_TAPCELL_ROW_5_154 VGND VPWR sky130_fd_sc_hd__tapvpwrvgnd_1
XFILLER_53_53 VGND VGND VPWR VPWR sky130_fd_sc_hd__decap_3
XFILLER_53_20 VGND VGND VPWR VPWR sky130_fd_sc_hd__decap_3
XFILLER_37_54 VGND VGND VPWR VPWR sky130_fd_sc_hd__fill_2
XFILLER_52_9 VGND VGND VPWR VPWR sky130_fd_sc_hd__decap_3
XFILLER_23_12 VGND VGND VPWR VPWR sky130_fd_sc_hd__decap_3
XFILLER_23_45 VGND VGND VPWR VPWR sky130_fd_sc_hd__decap_3
XFILLER_23_78 VGND VGND VPWR VPWR sky130_fd_sc_hd__fill_2
XFILLER_0_27 VGND VGND VPWR VPWR sky130_fd_sc_hd__fill_1
XFILLER_0_38 VGND VGND VPWR VPWR sky130_fd_sc_hd__decap_3
XFILLER_48_53 VGND VGND VPWR VPWR sky130_fd_sc_hd__decap_3
XFILLER_64_41 VGND VGND VPWR VPWR sky130_fd_sc_hd__decap_3
XFILLER_9_69 VGND VGND VPWR VPWR sky130_fd_sc_hd__decap_3
XFILLER_9_36 VGND VGND VPWR VPWR sky130_fd_sc_hd__decap_3
XPHY_EDGE_ROW_24_Left_98 VGND VGND VPWR VPWR sky130_fd_sc_hd__decap_3
XFILLER_50_6 VGND VGND VPWR VPWR sky130_fd_sc_hd__decap_3
XFILLER_29_3 VGND VGND VPWR VPWR sky130_fd_sc_hd__decap_3
XFILLER_18_12 VGND VGND VPWR VPWR sky130_fd_sc_hd__decap_3
XFILLER_18_56 VGND VGND VPWR VPWR sky130_fd_sc_hd__decap_3
XFILLER_18_78 VGND VGND VPWR VPWR sky130_fd_sc_hd__fill_2
XFILLER_34_44 VGND VGND VPWR VPWR sky130_fd_sc_hd__decap_3
X_042_ WW4END[5] VGND VGND VPWR VPWR net34 sky130_fd_sc_hd__clkbuf_1
XFILLER_50_21 VGND VGND VPWR VPWR sky130_fd_sc_hd__decap_3
XFILLER_50_32 VGND VGND VPWR VPWR sky130_fd_sc_hd__decap_3
XFILLER_50_65 VGND VGND VPWR VPWR sky130_fd_sc_hd__fill_2
XFILLER_59_63 VGND VGND VPWR VPWR sky130_fd_sc_hd__decap_3
XFILLER_59_30 VGND VGND VPWR VPWR sky130_fd_sc_hd__decap_3
XFILLER_15_9 VGND VGND VPWR VPWR sky130_fd_sc_hd__decap_3
XFILLER_20_24 VGND VGND VPWR VPWR sky130_fd_sc_hd__decap_3
XFILLER_20_35 VGND VGND VPWR VPWR sky130_fd_sc_hd__decap_3
XFILLER_20_68 VGND VGND VPWR VPWR sky130_fd_sc_hd__decap_3
XFILLER_20_79 VGND VGND VPWR VPWR sky130_fd_sc_hd__fill_1
XFILLER_29_33 VGND VGND VPWR VPWR sky130_fd_sc_hd__decap_3
XFILLER_29_44 VGND VGND VPWR VPWR sky130_fd_sc_hd__decap_3
XFILLER_45_21 VGND VGND VPWR VPWR sky130_fd_sc_hd__decap_3
XFILLER_45_54 VGND VGND VPWR VPWR sky130_fd_sc_hd__fill_2
XFILLER_61_42 VGND VGND VPWR VPWR sky130_fd_sc_hd__decap_3
XFILLER_6_15 VGND VGND VPWR VPWR sky130_fd_sc_hd__decap_3
XANTENNA_8 WW4END[1] VGND VGND VPWR VPWR sky130_fd_sc_hd__diode_2
X_025_ W6END[6] VGND VGND VPWR VPWR net28 sky130_fd_sc_hd__clkbuf_1
XFILLER_13_6 VGND VGND VPWR VPWR sky130_fd_sc_hd__decap_3
XPHY_EDGE_ROW_11_Left_85 VGND VGND VPWR VPWR sky130_fd_sc_hd__decap_3
XFILLER_15_24 VGND VGND VPWR VPWR sky130_fd_sc_hd__decap_3
XFILLER_15_57 VGND VGND VPWR VPWR sky130_fd_sc_hd__decap_3
XFILLER_15_79 VGND VGND VPWR VPWR sky130_fd_sc_hd__fill_1
XTAP_TAPCELL_ROW_35_184 VGND VPWR sky130_fd_sc_hd__tapvpwrvgnd_1
Xoutput23 net23 VGND VGND VPWR VPWR E6BEG[11] sky130_fd_sc_hd__buf_2
XFILLER_31_12 VGND VGND VPWR VPWR sky130_fd_sc_hd__decap_3
XFILLER_31_45 VGND VGND VPWR VPWR sky130_fd_sc_hd__decap_3
XFILLER_31_67 VGND VGND VPWR VPWR sky130_fd_sc_hd__fill_2
Xoutput12 net12 VGND VGND VPWR VPWR E2BEG[7] sky130_fd_sc_hd__buf_2
Xoutput34 net34 VGND VGND VPWR VPWR EE4BEG[10] sky130_fd_sc_hd__buf_2
Xoutput89 net89 VGND VGND VPWR VPWR FrameStrobe_O[17] sky130_fd_sc_hd__buf_2
Xoutput67 net67 VGND VGND VPWR VPWR FrameData_O[26] sky130_fd_sc_hd__buf_2
Xoutput56 net56 VGND VGND VPWR VPWR FrameData_O[16] sky130_fd_sc_hd__buf_2
Xoutput78 net78 VGND VGND VPWR VPWR FrameData_O[7] sky130_fd_sc_hd__buf_2
XFILLER_56_20 VGND VGND VPWR VPWR sky130_fd_sc_hd__decap_3
Xoutput45 net45 VGND VGND VPWR VPWR EE4BEG[6] sky130_fd_sc_hd__buf_2
XFILLER_72_41 VGND VGND VPWR VPWR sky130_fd_sc_hd__decap_3
XFILLER_56_53 VGND VGND VPWR VPWR sky130_fd_sc_hd__decap_3
X_008_ W2MID[3] VGND VGND VPWR VPWR net9 sky130_fd_sc_hd__buf_1
XTAP_TAPCELL_ROW_64_213 VGND VPWR sky130_fd_sc_hd__tapvpwrvgnd_1
XFILLER_11_3 VGND VGND VPWR VPWR sky130_fd_sc_hd__decap_3
XFILLER_26_12 VGND VGND VPWR VPWR sky130_fd_sc_hd__decap_3
XFILLER_26_56 VGND VGND VPWR VPWR sky130_fd_sc_hd__decap_3
XFILLER_42_22 VGND VGND VPWR VPWR sky130_fd_sc_hd__decap_3
XFILLER_42_44 VGND VGND VPWR VPWR sky130_fd_sc_hd__decap_3
XFILLER_3_27 VGND VGND VPWR VPWR sky130_fd_sc_hd__decap_3
XFILLER_67_63 VGND VGND VPWR VPWR sky130_fd_sc_hd__decap_3
XFILLER_67_30 VGND VGND VPWR VPWR sky130_fd_sc_hd__decap_3
XFILLER_59_3 VGND VGND VPWR VPWR sky130_fd_sc_hd__decap_3
XFILLER_12_47 VGND VGND VPWR VPWR sky130_fd_sc_hd__decap_3
XFILLER_37_11 VGND VGND VPWR VPWR sky130_fd_sc_hd__decap_3
XFILLER_37_33 VGND VGND VPWR VPWR sky130_fd_sc_hd__decap_3
XFILLER_53_32 VGND VGND VPWR VPWR sky130_fd_sc_hd__decap_3
XFILLER_45_9 VGND VGND VPWR VPWR sky130_fd_sc_hd__decap_3
XFILLER_23_24 VGND VGND VPWR VPWR sky130_fd_sc_hd__decap_3
XFILLER_48_21 VGND VGND VPWR VPWR sky130_fd_sc_hd__decap_3
XFILLER_48_32 VGND VGND VPWR VPWR sky130_fd_sc_hd__decap_3
XFILLER_64_53 VGND VGND VPWR VPWR sky130_fd_sc_hd__decap_3
XFILLER_48_65 VGND VGND VPWR VPWR sky130_fd_sc_hd__decap_3
XFILLER_9_48 VGND VGND VPWR VPWR sky130_fd_sc_hd__decap_3
XFILLER_9_15 VGND VGND VPWR VPWR sky130_fd_sc_hd__decap_3
XFILLER_43_6 VGND VGND VPWR VPWR sky130_fd_sc_hd__decap_3
XFILLER_18_24 VGND VGND VPWR VPWR sky130_fd_sc_hd__decap_3
XFILLER_18_35 VGND VGND VPWR VPWR sky130_fd_sc_hd__decap_3
XFILLER_18_68 VGND VGND VPWR VPWR sky130_fd_sc_hd__fill_1
XFILLER_34_12 VGND VGND VPWR VPWR sky130_fd_sc_hd__decap_3
XFILLER_34_56 VGND VGND VPWR VPWR sky130_fd_sc_hd__decap_3
XFILLER_34_67 VGND VGND VPWR VPWR sky130_fd_sc_hd__decap_3
X_041_ WW4END[6] VGND VGND VPWR VPWR net48 sky130_fd_sc_hd__buf_1
XFILLER_50_44 VGND VGND VPWR VPWR sky130_fd_sc_hd__decap_3
XFILLER_59_42 VGND VGND VPWR VPWR sky130_fd_sc_hd__decap_3
XFILLER_41_3 VGND VGND VPWR VPWR sky130_fd_sc_hd__decap_3
XFILLER_1_60 VGND VGND VPWR VPWR sky130_fd_sc_hd__decap_3
XFILLER_20_47 VGND VGND VPWR VPWR sky130_fd_sc_hd__decap_3
XFILLER_29_12 VGND VGND VPWR VPWR sky130_fd_sc_hd__decap_3
XFILLER_29_78 VGND VGND VPWR VPWR sky130_fd_sc_hd__fill_2
XFILLER_45_33 VGND VGND VPWR VPWR sky130_fd_sc_hd__decap_3
XFILLER_45_66 VGND VGND VPWR VPWR sky130_fd_sc_hd__fill_1
XFILLER_61_54 VGND VGND VPWR VPWR sky130_fd_sc_hd__fill_2
XFILLER_61_21 VGND VGND VPWR VPWR sky130_fd_sc_hd__decap_3
XFILLER_6_38 VGND VGND VPWR VPWR sky130_fd_sc_hd__decap_3
XFILLER_6_27 VGND VGND VPWR VPWR sky130_fd_sc_hd__fill_1
XANTENNA_9 FrameStrobe[17] VGND VGND VPWR VPWR sky130_fd_sc_hd__diode_2
X_024_ W6END[7] VGND VGND VPWR VPWR net27 sky130_fd_sc_hd__clkbuf_1
XFILLER_15_36 VGND VGND VPWR VPWR sky130_fd_sc_hd__decap_3
XTAP_TAPCELL_ROW_50_199 VGND VPWR sky130_fd_sc_hd__tapvpwrvgnd_1
Xoutput57 net57 VGND VGND VPWR VPWR FrameData_O[17] sky130_fd_sc_hd__buf_2
XFILLER_31_57 VGND VGND VPWR VPWR sky130_fd_sc_hd__fill_1
Xoutput13 net13 VGND VGND VPWR VPWR E2BEGb[0] sky130_fd_sc_hd__buf_2
Xoutput46 net46 VGND VGND VPWR VPWR EE4BEG[7] sky130_fd_sc_hd__buf_2
Xoutput35 net35 VGND VGND VPWR VPWR EE4BEG[11] sky130_fd_sc_hd__buf_2
Xoutput24 net24 VGND VGND VPWR VPWR E6BEG[1] sky130_fd_sc_hd__buf_2
Xoutput68 net68 VGND VGND VPWR VPWR FrameData_O[27] sky130_fd_sc_hd__buf_2
Xoutput79 net79 VGND VGND VPWR VPWR FrameData_O[8] sky130_fd_sc_hd__buf_2
XFILLER_56_65 VGND VGND VPWR VPWR sky130_fd_sc_hd__decap_3
XFILLER_56_32 VGND VGND VPWR VPWR sky130_fd_sc_hd__decap_3
XFILLER_72_53 VGND VGND VPWR VPWR sky130_fd_sc_hd__decap_3
XPHY_EDGE_ROW_19_Right_19 VGND VGND VPWR VPWR sky130_fd_sc_hd__decap_3
X_007_ W2MID[4] VGND VGND VPWR VPWR net8 sky130_fd_sc_hd__buf_1
XPHY_EDGE_ROW_28_Right_28 VGND VGND VPWR VPWR sky130_fd_sc_hd__decap_3
XPHY_EDGE_ROW_37_Right_37 VGND VGND VPWR VPWR sky130_fd_sc_hd__decap_3
XPHY_EDGE_ROW_46_Right_46 VGND VGND VPWR VPWR sky130_fd_sc_hd__decap_3
XPHY_EDGE_ROW_55_Right_55 VGND VGND VPWR VPWR sky130_fd_sc_hd__decap_3
XFILLER_26_24 VGND VGND VPWR VPWR sky130_fd_sc_hd__decap_3
XFILLER_26_35 VGND VGND VPWR VPWR sky130_fd_sc_hd__decap_3
XFILLER_26_68 VGND VGND VPWR VPWR sky130_fd_sc_hd__decap_3
XPHY_EDGE_ROW_64_Right_64 VGND VGND VPWR VPWR sky130_fd_sc_hd__decap_3
XFILLER_42_56 VGND VGND VPWR VPWR sky130_fd_sc_hd__decap_3
XFILLER_3_39 VGND VGND VPWR VPWR sky130_fd_sc_hd__decap_3
XPHY_EDGE_ROW_73_Right_73 VGND VGND VPWR VPWR sky130_fd_sc_hd__decap_3
XFILLER_67_42 VGND VGND VPWR VPWR sky130_fd_sc_hd__decap_3
XFILLER_12_59 VGND VGND VPWR VPWR sky130_fd_sc_hd__decap_3
XFILLER_12_15 VGND VGND VPWR VPWR sky130_fd_sc_hd__decap_3
XTAP_TAPCELL_ROW_20_169 VGND VPWR sky130_fd_sc_hd__tapvpwrvgnd_1
XFILLER_5_9 VGND VGND VPWR VPWR sky130_fd_sc_hd__decap_3
XFILLER_37_23 VGND VGND VPWR VPWR sky130_fd_sc_hd__decap_3
XFILLER_37_45 VGND VGND VPWR VPWR sky130_fd_sc_hd__decap_3
XFILLER_37_67 VGND VGND VPWR VPWR sky130_fd_sc_hd__fill_2
XFILLER_53_66 VGND VGND VPWR VPWR sky130_fd_sc_hd__decap_3
XFILLER_53_44 VGND VGND VPWR VPWR sky130_fd_sc_hd__decap_3
XFILLER_38_9 VGND VGND VPWR VPWR sky130_fd_sc_hd__decap_3
XFILLER_71_3 VGND VGND VPWR VPWR sky130_fd_sc_hd__decap_3
XFILLER_4_71 VGND VGND VPWR VPWR sky130_fd_sc_hd__decap_3
XFILLER_23_36 VGND VGND VPWR VPWR sky130_fd_sc_hd__decap_3
XFILLER_23_69 VGND VGND VPWR VPWR sky130_fd_sc_hd__decap_3
XFILLER_3_6 VGND VGND VPWR VPWR sky130_fd_sc_hd__decap_3
XFILLER_48_44 VGND VGND VPWR VPWR sky130_fd_sc_hd__decap_3
XFILLER_64_65 VGND VGND VPWR VPWR sky130_fd_sc_hd__decap_3
XFILLER_64_32 VGND VGND VPWR VPWR sky130_fd_sc_hd__decap_3
XFILLER_64_21 VGND VGND VPWR VPWR sky130_fd_sc_hd__decap_3
XFILLER_0_18 VGND VGND VPWR VPWR sky130_fd_sc_hd__decap_3
XFILLER_0_29 VGND VGND VPWR VPWR sky130_fd_sc_hd__decap_3
XFILLER_9_27 VGND VGND VPWR VPWR sky130_fd_sc_hd__decap_3
XFILLER_36_6 VGND VGND VPWR VPWR sky130_fd_sc_hd__decap_3
XFILLER_18_47 VGND VGND VPWR VPWR sky130_fd_sc_hd__decap_3
XFILLER_34_24 VGND VGND VPWR VPWR sky130_fd_sc_hd__decap_3
XFILLER_34_35 VGND VGND VPWR VPWR sky130_fd_sc_hd__decap_3
XFILLER_50_12 VGND VGND VPWR VPWR sky130_fd_sc_hd__decap_3
XFILLER_59_21 VGND VGND VPWR VPWR sky130_fd_sc_hd__decap_3
XFILLER_1_3 VGND VGND VPWR VPWR sky130_fd_sc_hd__decap_3
X_040_ WW4END[7] VGND VGND VPWR VPWR net47 sky130_fd_sc_hd__clkbuf_1
XFILLER_50_56 VGND VGND VPWR VPWR sky130_fd_sc_hd__decap_3
XFILLER_59_54 VGND VGND VPWR VPWR sky130_fd_sc_hd__fill_2
XFILLER_34_3 VGND VGND VPWR VPWR sky130_fd_sc_hd__decap_3
XFILLER_1_72 VGND VGND VPWR VPWR sky130_fd_sc_hd__fill_1
XFILLER_20_15 VGND VGND VPWR VPWR sky130_fd_sc_hd__decap_3
XFILLER_20_59 VGND VGND VPWR VPWR sky130_fd_sc_hd__decap_3
XFILLER_29_24 VGND VGND VPWR VPWR sky130_fd_sc_hd__decap_3
XFILLER_29_57 VGND VGND VPWR VPWR sky130_fd_sc_hd__decap_3
XFILLER_45_12 VGND VGND VPWR VPWR sky130_fd_sc_hd__decap_3
XFILLER_45_45 VGND VGND VPWR VPWR sky130_fd_sc_hd__decap_3
XFILLER_61_66 VGND VGND VPWR VPWR sky130_fd_sc_hd__decap_3
XFILLER_61_33 VGND VGND VPWR VPWR sky130_fd_sc_hd__decap_3
X_023_ W6END[8] VGND VGND VPWR VPWR net26 sky130_fd_sc_hd__clkbuf_1
XFILLER_10_70 VGND VGND VPWR VPWR sky130_fd_sc_hd__decap_3
XFILLER_20_9 VGND VGND VPWR VPWR sky130_fd_sc_hd__decap_3
XFILLER_15_15 VGND VGND VPWR VPWR sky130_fd_sc_hd__decap_3
XFILLER_15_48 VGND VGND VPWR VPWR sky130_fd_sc_hd__decap_3
XFILLER_31_36 VGND VGND VPWR VPWR sky130_fd_sc_hd__decap_3
Xoutput69 net69 VGND VGND VPWR VPWR FrameData_O[28] sky130_fd_sc_hd__buf_2
Xoutput58 net58 VGND VGND VPWR VPWR FrameData_O[18] sky130_fd_sc_hd__buf_2
Xoutput14 net14 VGND VGND VPWR VPWR E2BEGb[1] sky130_fd_sc_hd__buf_2
Xoutput47 net47 VGND VGND VPWR VPWR EE4BEG[8] sky130_fd_sc_hd__buf_2
Xoutput36 net36 VGND VGND VPWR VPWR EE4BEG[12] sky130_fd_sc_hd__buf_2
Xoutput25 net25 VGND VGND VPWR VPWR E6BEG[2] sky130_fd_sc_hd__buf_2
XFILLER_56_44 VGND VGND VPWR VPWR sky130_fd_sc_hd__decap_3
XFILLER_72_65 VGND VGND VPWR VPWR sky130_fd_sc_hd__decap_3
XFILLER_72_32 VGND VGND VPWR VPWR sky130_fd_sc_hd__decap_3
XFILLER_72_10 VGND VGND VPWR VPWR sky130_fd_sc_hd__decap_3
XTAP_TAPCELL_ROW_26_175 VGND VPWR sky130_fd_sc_hd__tapvpwrvgnd_1
XFILLER_68_9 VGND VGND VPWR VPWR sky130_fd_sc_hd__decap_3
X_006_ W2MID[5] VGND VGND VPWR VPWR net7 sky130_fd_sc_hd__buf_1
XFILLER_7_60 VGND VGND VPWR VPWR sky130_fd_sc_hd__decap_3
XTAP_TAPCELL_ROW_55_204 VGND VPWR sky130_fd_sc_hd__tapvpwrvgnd_1
XFILLER_26_47 VGND VGND VPWR VPWR sky130_fd_sc_hd__decap_3
XFILLER_42_13 VGND VGND VPWR VPWR sky130_fd_sc_hd__decap_3
XFILLER_42_35 VGND VGND VPWR VPWR sky130_fd_sc_hd__decap_3
XFILLER_67_54 VGND VGND VPWR VPWR sky130_fd_sc_hd__fill_2
XFILLER_67_21 VGND VGND VPWR VPWR sky130_fd_sc_hd__decap_3
XFILLER_3_18 VGND VGND VPWR VPWR sky130_fd_sc_hd__decap_3
XFILLER_66_6 VGND VGND VPWR VPWR sky130_fd_sc_hd__decap_3
XPHY_EDGE_ROW_26_Left_100 VGND VGND VPWR VPWR sky130_fd_sc_hd__decap_3
XFILLER_12_38 VGND VGND VPWR VPWR sky130_fd_sc_hd__decap_3