*SPEF "ieee 1481-1999"
*DESIGN "S_term_single"
*DATE "08:02:09 Friday May 09, 2025"
*VENDOR "The OpenROAD Project"
*PROGRAM "OpenROAD"
*VERSION "87af90f72f3f9be1fdfa1d886f0dd8d8b8f34694"
*DESIGN_FLOW "NAME_SCOPE LOCAL" "PIN_CAP NONE"
*DIVIDER /
*DELIMITER :
*BUS_DELIMITER []
*T_UNIT 1 NS
*C_UNIT 1 PF
*R_UNIT 1 OHM
*L_UNIT 1 HENRY

*NAME_MAP
*1 net106
*2 FrameData[0]
*3 FrameData[10]
*4 FrameData[11]
*5 FrameData[12]
*6 FrameData[13]
*7 FrameData[14]
*8 FrameData[15]
*9 FrameData[16]
*10 FrameData[17]
*11 FrameData[18]
*12 FrameData[19]
*13 FrameData[1]
*14 FrameData[20]
*15 FrameData[21]
*16 FrameData[22]
*17 FrameData[23]
*18 FrameData[24]
*19 FrameData[25]
*20 FrameData[26]
*21 FrameData[27]
*22 FrameData[28]
*23 FrameData[29]
*24 FrameData[2]
*25 FrameData[30]
*26 FrameData[31]
*27 FrameData[3]
*28 FrameData[4]
*29 FrameData[5]
*30 FrameData[6]
*31 FrameData[7]
*32 FrameData[8]
*33 FrameData[9]
*34 FrameData_O[0]
*35 FrameData_O[10]
*36 FrameData_O[11]
*37 FrameData_O[12]
*38 FrameData_O[13]
*39 FrameData_O[14]
*40 FrameData_O[15]
*41 FrameData_O[16]
*42 FrameData_O[17]
*43 FrameData_O[18]
*44 FrameData_O[19]
*45 FrameData_O[1]
*46 FrameData_O[20]
*47 FrameData_O[21]
*48 FrameData_O[22]
*49 FrameData_O[23]
*50 FrameData_O[24]
*51 FrameData_O[25]
*52 FrameData_O[26]
*53 FrameData_O[27]
*54 FrameData_O[28]
*55 FrameData_O[29]
*56 FrameData_O[2]
*57 FrameData_O[30]
*58 FrameData_O[31]
*59 FrameData_O[3]
*60 FrameData_O[4]
*61 FrameData_O[5]
*62 FrameData_O[6]
*63 FrameData_O[7]
*64 FrameData_O[8]
*65 FrameData_O[9]
*66 FrameStrobe[0]
*67 FrameStrobe[10]
*68 FrameStrobe[11]
*69 FrameStrobe[12]
*70 FrameStrobe[13]
*71 FrameStrobe[14]
*72 FrameStrobe[15]
*73 FrameStrobe[16]
*74 FrameStrobe[17]
*75 FrameStrobe[18]
*76 FrameStrobe[19]
*77 FrameStrobe[1]
*78 FrameStrobe[2]
*79 FrameStrobe[3]
*80 FrameStrobe[4]
*81 FrameStrobe[5]
*82 FrameStrobe[6]
*83 FrameStrobe[7]
*84 FrameStrobe[8]
*85 FrameStrobe[9]
*86 FrameStrobe_O[0]
*87 FrameStrobe_O[10]
*88 FrameStrobe_O[11]
*89 FrameStrobe_O[12]
*90 FrameStrobe_O[13]
*91 FrameStrobe_O[14]
*92 FrameStrobe_O[15]
*93 FrameStrobe_O[16]
*94 FrameStrobe_O[17]
*95 FrameStrobe_O[18]
*96 FrameStrobe_O[19]
*97 FrameStrobe_O[1]
*98 FrameStrobe_O[2]
*99 FrameStrobe_O[3]
*100 FrameStrobe_O[4]
*101 FrameStrobe_O[5]
*102 FrameStrobe_O[6]
*103 FrameStrobe_O[7]
*104 FrameStrobe_O[8]
*105 FrameStrobe_O[9]
*106 N1BEG[0]
*107 N1BEG[1]
*108 N1BEG[2]
*109 N1BEG[3]
*110 N2BEG[0]
*111 N2BEG[1]
*112 N2BEG[2]
*113 N2BEG[3]
*114 N2BEG[4]
*115 N2BEG[5]
*116 N2BEG[6]
*117 N2BEG[7]
*118 N2BEGb[0]
*119 N2BEGb[1]
*120 N2BEGb[2]
*121 N2BEGb[3]
*122 N2BEGb[4]
*123 N2BEGb[5]
*124 N2BEGb[6]
*125 N2BEGb[7]
*126 N4BEG[0]
*127 N4BEG[10]
*128 N4BEG[11]
*129 N4BEG[12]
*130 N4BEG[13]
*131 N4BEG[14]
*132 N4BEG[15]
*133 N4BEG[1]
*134 N4BEG[2]
*135 N4BEG[3]
*136 N4BEG[4]
*137 N4BEG[5]
*138 N4BEG[6]
*139 N4BEG[7]
*140 N4BEG[8]
*141 N4BEG[9]
*142 NN4BEG[0]
*143 NN4BEG[10]
*144 NN4BEG[11]
*145 NN4BEG[12]
*146 NN4BEG[13]
*147 NN4BEG[14]
*148 NN4BEG[15]
*149 NN4BEG[1]
*150 NN4BEG[2]
*151 NN4BEG[3]
*152 NN4BEG[4]
*153 NN4BEG[5]
*154 NN4BEG[6]
*155 NN4BEG[7]
*156 NN4BEG[8]
*157 NN4BEG[9]
*158 S1END[0]
*159 S1END[1]
*160 S1END[2]
*161 S1END[3]
*162 S2END[0]
*163 S2END[1]
*164 S2END[2]
*165 S2END[3]
*166 S2END[4]
*167 S2END[5]
*168 S2END[6]
*169 S2END[7]
*170 S2MID[0]
*171 S2MID[1]
*172 S2MID[2]
*173 S2MID[3]
*174 S2MID[4]
*175 S2MID[5]
*176 S2MID[6]
*177 S2MID[7]
*178 S4END[0]
*179 S4END[10]
*180 S4END[11]
*181 S4END[12]
*182 S4END[13]
*183 S4END[14]
*184 S4END[15]
*185 S4END[1]
*186 S4END[2]
*187 S4END[3]
*188 S4END[4]
*189 S4END[5]
*190 S4END[6]
*191 S4END[7]
*192 S4END[8]
*193 S4END[9]
*194 SS4END[0]
*195 SS4END[10]
*196 SS4END[11]
*197 SS4END[12]
*198 SS4END[13]
*199 SS4END[14]
*200 SS4END[15]
*201 SS4END[1]
*202 SS4END[2]
*203 SS4END[3]
*204 SS4END[4]
*205 SS4END[5]
*206 SS4END[6]
*207 SS4END[7]
*208 SS4END[8]
*209 SS4END[9]
*210 UserCLK
*211 UserCLKo
*214 net1
*215 net10
*216 net100
*217 net101
*218 net102
*219 net103
*220 net104
*221 net105
*222 net11
*223 net12
*224 net13
*225 net14
*226 net15
*227 net16
*228 net17
*229 net18
*230 net19
*231 net2
*232 net20
*233 net21
*234 net22
*235 net23
*236 net24
*237 net25
*238 net26
*239 net27
*240 net28
*241 net29
*242 net3
*243 net30
*244 net31
*245 net32
*246 net33
*247 net34
*248 net35
*249 net36
*250 net37
*251 net38
*252 net39
*253 net4
*254 net40
*255 net41
*256 net42
*257 net43
*258 net44
*259 net45
*260 net46
*261 net47
*262 net48
*263 net49
*264 net5
*265 net50
*266 net51
*267 net52
*268 net53
*269 net54
*270 net55
*271 net56
*272 net57
*273 net58
*274 net59
*275 net6
*276 net60
*277 net61
*278 net62
*279 net63
*280 net64
*281 net65
*282 net66
*283 net67
*284 net68
*285 net69
*286 net7
*287 net70
*288 net71
*289 net72
*290 net73
*291 net74
*292 net75
*293 net76
*294 net77
*295 net78
*296 net79
*297 net8
*298 net80
*299 net81
*300 net82
*301 net83
*302 net84
*303 net85
*304 net86
*305 net87
*306 net88
*307 net89
*308 net9
*309 net90
*310 net91
*311 net92
*312 net93
*313 net94
*314 net95
*315 net96
*316 net97
*317 net98
*318 net99
*319 ANTENNA_1
*320 ANTENNA_10
*321 ANTENNA_11
*322 ANTENNA_12
*323 ANTENNA_13
*324 ANTENNA_14
*325 ANTENNA_15
*326 ANTENNA_16
*327 ANTENNA_17
*328 ANTENNA_18
*329 ANTENNA_19
*330 ANTENNA_2
*331 ANTENNA_20
*332 ANTENNA_21
*333 ANTENNA_22
*334 ANTENNA_23
*335 ANTENNA_24
*336 ANTENNA_25
*337 ANTENNA_26
*338 ANTENNA_27
*339 ANTENNA_28
*340 ANTENNA_29
*341 ANTENNA_3
*342 ANTENNA_30
*343 ANTENNA_31
*344 ANTENNA_4
*345 ANTENNA_5
*346 ANTENNA_6
*347 ANTENNA_7
*348 ANTENNA_8
*349 ANTENNA_9
*350 FILLER_0_100
*351 FILLER_0_103
*352 FILLER_0_106
*353 FILLER_0_109
*354 FILLER_0_113
*355 FILLER_0_116
*356 FILLER_0_119
*357 FILLER_0_12
*358 FILLER_0_122
*359 FILLER_0_125
*360 FILLER_0_128
*361 FILLER_0_131
*362 FILLER_0_134
*363 FILLER_0_137
*364 FILLER_0_141
*365 FILLER_0_144
*366 FILLER_0_147
*367 FILLER_0_15
*368 FILLER_0_150
*369 FILLER_0_153
*370 FILLER_0_156
*371 FILLER_0_159
*372 FILLER_0_162
*373 FILLER_0_165
*374 FILLER_0_169
*375 FILLER_0_172
*376 FILLER_0_175
*377 FILLER_0_178
*378 FILLER_0_18
*379 FILLER_0_181
*380 FILLER_0_184
*381 FILLER_0_187
*382 FILLER_0_190
*383 FILLER_0_193
*384 FILLER_0_197
*385 FILLER_0_200
*386 FILLER_0_203
*387 FILLER_0_206
*388 FILLER_0_209
*389 FILLER_0_21
*390 FILLER_0_212
*391 FILLER_0_215
*392 FILLER_0_218
*393 FILLER_0_221
*394 FILLER_0_225
*395 FILLER_0_228
*396 FILLER_0_231
*397 FILLER_0_234
*398 FILLER_0_237
*399 FILLER_0_24
*400 FILLER_0_240
*401 FILLER_0_243
*402 FILLER_0_246
*403 FILLER_0_249
*404 FILLER_0_253
*405 FILLER_0_256
*406 FILLER_0_259
*407 FILLER_0_262
*408 FILLER_0_265
*409 FILLER_0_268
*410 FILLER_0_27
*411 FILLER_0_271
*412 FILLER_0_274
*413 FILLER_0_277
*414 FILLER_0_281
*415 FILLER_0_284
*416 FILLER_0_287
*417 FILLER_0_29
*418 FILLER_0_290
*419 FILLER_0_293
*420 FILLER_0_296
*421 FILLER_0_299
*422 FILLER_0_3
*423 FILLER_0_302
*424 FILLER_0_305
*425 FILLER_0_309
*426 FILLER_0_312
*427 FILLER_0_315
*428 FILLER_0_318
*429 FILLER_0_32
*430 FILLER_0_321
*431 FILLER_0_337
*432 FILLER_0_35
*433 FILLER_0_38
*434 FILLER_0_41
*435 FILLER_0_44
*436 FILLER_0_47
*437 FILLER_0_50
*438 FILLER_0_53
*439 FILLER_0_57
*440 FILLER_0_6
*441 FILLER_0_60
*442 FILLER_0_63
*443 FILLER_0_66
*444 FILLER_0_69
*445 FILLER_0_72
*446 FILLER_0_75
*447 FILLER_0_78
*448 FILLER_0_81
*449 FILLER_0_85
*450 FILLER_0_88
*451 FILLER_0_9
*452 FILLER_0_91
*453 FILLER_0_94
*454 FILLER_0_97
*455 FILLER_10_12
*456 FILLER_10_141
*457 FILLER_10_148
*458 FILLER_10_15
*459 FILLER_10_151
*460 FILLER_10_154
*461 FILLER_10_157
*462 FILLER_10_160
*463 FILLER_10_163
*464 FILLER_10_166
*465 FILLER_10_169
*466 FILLER_10_172
*467 FILLER_10_175
*468 FILLER_10_178
*469 FILLER_10_18
*470 FILLER_10_181
*471 FILLER_10_184
*472 FILLER_10_187
*473 FILLER_10_190
*474 FILLER_10_193
*475 FILLER_10_197
*476 FILLER_10_200
*477 FILLER_10_203
*478 FILLER_10_206
*479 FILLER_10_209
*480 FILLER_10_21
*481 FILLER_10_212
*482 FILLER_10_215
*483 FILLER_10_218
*484 FILLER_10_221
*485 FILLER_10_224
*486 FILLER_10_227
*487 FILLER_10_230
*488 FILLER_10_233
*489 FILLER_10_236
*490 FILLER_10_239
*491 FILLER_10_24
*492 FILLER_10_242
*493 FILLER_10_245
*494 FILLER_10_248
*495 FILLER_10_251
*496 FILLER_10_253
*497 FILLER_10_256
*498 FILLER_10_259
*499 FILLER_10_262
*500 FILLER_10_265
*501 FILLER_10_268
*502 FILLER_10_27
*503 FILLER_10_29
*504 FILLER_10_3
*505 FILLER_10_306
*506 FILLER_10_309
*507 FILLER_10_312
*508 FILLER_10_315
*509 FILLER_10_318
*510 FILLER_10_32
*511 FILLER_10_321
*512 FILLER_10_324
*513 FILLER_10_327
*514 FILLER_10_330
*515 FILLER_10_35
*516 FILLER_10_38
*517 FILLER_10_41
*518 FILLER_10_44
*519 FILLER_10_47
*520 FILLER_10_6
*521 FILLER_10_85
*522 FILLER_10_9
*523 FILLER_11_113
*524 FILLER_11_12
*525 FILLER_11_141
*526 FILLER_11_15
*527 FILLER_11_163
*528 FILLER_11_166
*529 FILLER_11_169
*530 FILLER_11_172
*531 FILLER_11_175
*532 FILLER_11_178
*533 FILLER_11_18
*534 FILLER_11_181
*535 FILLER_11_184
*536 FILLER_11_187
*537 FILLER_11_190
*538 FILLER_11_193
*539 FILLER_11_197
*540 FILLER_11_200
*541 FILLER_11_203
*542 FILLER_11_206
*543 FILLER_11_209
*544 FILLER_11_21
*545 FILLER_11_212
*546 FILLER_11_215
*547 FILLER_11_218
*548 FILLER_11_221
*549 FILLER_11_225
*550 FILLER_11_228
*551 FILLER_11_231
*552 FILLER_11_234
*553 FILLER_11_237
*554 FILLER_11_24
*555 FILLER_11_240
*556 FILLER_11_243
*557 FILLER_11_246
*558 FILLER_11_249
*559 FILLER_11_253
*560 FILLER_11_256
*561 FILLER_11_27
*562 FILLER_11_278
*563 FILLER_11_29
*564 FILLER_11_3
*565 FILLER_11_305
*566 FILLER_11_313
*567 FILLER_11_316
*568 FILLER_11_319
*569 FILLER_11_32
*570 FILLER_11_322
*571 FILLER_11_325
*572 FILLER_11_337
*573 FILLER_11_35
*574 FILLER_11_38
*575 FILLER_11_57
*576 FILLER_11_6
*577 FILLER_11_85
*578 FILLER_11_9
*579 FILLER_1_102
*580 FILLER_1_105
*581 FILLER_1_108
*582 FILLER_1_111
*583 FILLER_1_113
*584 FILLER_1_116
*585 FILLER_1_119
*586 FILLER_1_12
*587 FILLER_1_122
*588 FILLER_1_125
*589 FILLER_1_128
*590 FILLER_1_131
*591 FILLER_1_134
*592 FILLER_1_137
*593 FILLER_1_140
*594 FILLER_1_143
*595 FILLER_1_146
*596 FILLER_1_149
*597 FILLER_1_15
*598 FILLER_1_152
*599 FILLER_1_155
*600 FILLER_1_158
*601 FILLER_1_161
*602 FILLER_1_164
*603 FILLER_1_167
*604 FILLER_1_169
*605 FILLER_1_172
*606 FILLER_1_175
*607 FILLER_1_178
*608 FILLER_1_18
*609 FILLER_1_181
*610 FILLER_1_184
*611 FILLER_1_187
*612 FILLER_1_190
*613 FILLER_1_193
*614 FILLER_1_196
*615 FILLER_1_199
*616 FILLER_1_202
*617 FILLER_1_205
*618 FILLER_1_208
*619 FILLER_1_21
*620 FILLER_1_211
*621 FILLER_1_214
*622 FILLER_1_217
*623 FILLER_1_220
*624 FILLER_1_223
*625 FILLER_1_225
*626 FILLER_1_228
*627 FILLER_1_231
*628 FILLER_1_234
*629 FILLER_1_237
*630 FILLER_1_24
*631 FILLER_1_240
*632 FILLER_1_243
*633 FILLER_1_246
*634 FILLER_1_249
*635 FILLER_1_252
*636 FILLER_1_255
*637 FILLER_1_258
*638 FILLER_1_261
*639 FILLER_1_264
*640 FILLER_1_267
*641 FILLER_1_27
*642 FILLER_1_270
*643 FILLER_1_273
*644 FILLER_1_276
*645 FILLER_1_279
*646 FILLER_1_281
*647 FILLER_1_284
*648 FILLER_1_287
*649 FILLER_1_290
*650 FILLER_1_293
*651 FILLER_1_296
*652 FILLER_1_299
*653 FILLER_1_3
*654 FILLER_1_30
*655 FILLER_1_302
*656 FILLER_1_305
*657 FILLER_1_308
*658 FILLER_1_311
*659 FILLER_1_314
*660 FILLER_1_317
*661 FILLER_1_320
*662 FILLER_1_323
*663 FILLER_1_326
*664 FILLER_1_329
*665 FILLER_1_33
*666 FILLER_1_337
*667 FILLER_1_36
*668 FILLER_1_39
*669 FILLER_1_42
*670 FILLER_1_45
*671 FILLER_1_48
*672 FILLER_1_51
*673 FILLER_1_54
*674 FILLER_1_57
*675 FILLER_1_6
*676 FILLER_1_60
*677 FILLER_1_63
*678 FILLER_1_66
*679 FILLER_1_69
*680 FILLER_1_72
*681 FILLER_1_75
*682 FILLER_1_78
*683 FILLER_1_81
*684 FILLER_1_84
*685 FILLER_1_87
*686 FILLER_1_9
*687 FILLER_1_90
*688 FILLER_1_93
*689 FILLER_1_96
*690 FILLER_1_99
*691 FILLER_2_104
*692 FILLER_2_107
*693 FILLER_2_112
*694 FILLER_2_115
*695 FILLER_2_118
*696 FILLER_2_12
*697 FILLER_2_122
*698 FILLER_2_125
*699 FILLER_2_128
*700 FILLER_2_131
*701 FILLER_2_134
*702 FILLER_2_137
*703 FILLER_2_141
*704 FILLER_2_146
*705 FILLER_2_149
*706 FILLER_2_15
*707 FILLER_2_152
*708 FILLER_2_160
*709 FILLER_2_163
*710 FILLER_2_166
*711 FILLER_2_169
*712 FILLER_2_172
*713 FILLER_2_175
*714 FILLER_2_178
*715 FILLER_2_18
*716 FILLER_2_185
*717 FILLER_2_188
*718 FILLER_2_191
*719 FILLER_2_194
*720 FILLER_2_200
*721 FILLER_2_208
*722 FILLER_2_21
*723 FILLER_2_213
*724 FILLER_2_218
*725 FILLER_2_225
*726 FILLER_2_228
*727 FILLER_2_231
*728 FILLER_2_234
*729 FILLER_2_24
*730 FILLER_2_241
*731 FILLER_2_244
*732 FILLER_2_247
*733 FILLER_2_250
*734 FILLER_2_253
*735 FILLER_2_256
*736 FILLER_2_259
*737 FILLER_2_262
*738 FILLER_2_265
*739 FILLER_2_268
*740 FILLER_2_27
*741 FILLER_2_271
*742 FILLER_2_274
*743 FILLER_2_277
*744 FILLER_2_280
*745 FILLER_2_285
*746 FILLER_2_288
*747 FILLER_2_29
*748 FILLER_2_291
*749 FILLER_2_294
*750 FILLER_2_297
*751 FILLER_2_3
*752 FILLER_2_300
*753 FILLER_2_305
*754 FILLER_2_309
*755 FILLER_2_313
*756 FILLER_2_316
*757 FILLER_2_319
*758 FILLER_2_32
*759 FILLER_2_322
*760 FILLER_2_325
*761 FILLER_2_328
*762 FILLER_2_331
*763 FILLER_2_334
*764 FILLER_2_337
*765 FILLER_2_35
*766 FILLER_2_38
*767 FILLER_2_41
*768 FILLER_2_44
*769 FILLER_2_47
*770 FILLER_2_50
*771 FILLER_2_53
*772 FILLER_2_56
*773 FILLER_2_59
*774 FILLER_2_6
*775 FILLER_2_62
*776 FILLER_2_65
*777 FILLER_2_68
*778 FILLER_2_71
*779 FILLER_2_74
*780 FILLER_2_77
*781 FILLER_2_80
*782 FILLER_2_83
*783 FILLER_2_85
*784 FILLER_2_88
*785 FILLER_2_9
*786 FILLER_2_91
*787 FILLER_2_94
*788 FILLER_2_97
*789 FILLER_3_100
*790 FILLER_3_103
*791 FILLER_3_106
*792 FILLER_3_109
*793 FILLER_3_12
*794 FILLER_3_131
*795 FILLER_3_134
*796 FILLER_3_137
*797 FILLER_3_140
*798 FILLER_3_143
*799 FILLER_3_146
*800 FILLER_3_149
*801 FILLER_3_15
*802 FILLER_3_152
*803 FILLER_3_155
*804 FILLER_3_158
*805 FILLER_3_161
*806 FILLER_3_164
*807 FILLER_3_167
*808 FILLER_3_169
*809 FILLER_3_172
*810 FILLER_3_175
*811 FILLER_3_178
*812 FILLER_3_18
*813 FILLER_3_181
*814 FILLER_3_184
*815 FILLER_3_187
*816 FILLER_3_190
*817 FILLER_3_193
*818 FILLER_3_196
*819 FILLER_3_199
*820 FILLER_3_202
*821 FILLER_3_205
*822 FILLER_3_208
*823 FILLER_3_21
*824 FILLER_3_211
*825 FILLER_3_214
*826 FILLER_3_217
*827 FILLER_3_220
*828 FILLER_3_223
*829 FILLER_3_225
*830 FILLER_3_228
*831 FILLER_3_231
*832 FILLER_3_234
*833 FILLER_3_237
*834 FILLER_3_24
*835 FILLER_3_240
*836 FILLER_3_243
*837 FILLER_3_246
*838 FILLER_3_249
*839 FILLER_3_252
*840 FILLER_3_255
*841 FILLER_3_258
*842 FILLER_3_261
*843 FILLER_3_264
*844 FILLER_3_267
*845 FILLER_3_27
*846 FILLER_3_270
*847 FILLER_3_273
*848 FILLER_3_276
*849 FILLER_3_279
*850 FILLER_3_281
*851 FILLER_3_284
*852 FILLER_3_287
*853 FILLER_3_290
*854 FILLER_3_293
*855 FILLER_3_296
*856 FILLER_3_299
*857 FILLER_3_3
*858 FILLER_3_30
*859 FILLER_3_302
*860 FILLER_3_305
*861 FILLER_3_308
*862 FILLER_3_311
*863 FILLER_3_314
*864 FILLER_3_317
*865 FILLER_3_320
*866 FILLER_3_323
*867 FILLER_3_326
*868 FILLER_3_329
*869 FILLER_3_33
*870 FILLER_3_332
*871 FILLER_3_335
*872 FILLER_3_337
*873 FILLER_3_36
*874 FILLER_3_39
*875 FILLER_3_42
*876 FILLER_3_45
*877 FILLER_3_48
*878 FILLER_3_51
*879 FILLER_3_54
*880 FILLER_3_57
*881 FILLER_3_6
*882 FILLER_3_60
*883 FILLER_3_63
*884 FILLER_3_66
*885 FILLER_3_69
*886 FILLER_3_73
*887 FILLER_3_76
*888 FILLER_3_79
*889 FILLER_3_82
*890 FILLER_3_85
*891 FILLER_3_88
*892 FILLER_3_9
*893 FILLER_3_91
*894 FILLER_3_94
*895 FILLER_3_97
*896 FILLER_4_100
*897 FILLER_4_103
*898 FILLER_4_106
*899 FILLER_4_109
*900 FILLER_4_112
*901 FILLER_4_115
*902 FILLER_4_12
*903 FILLER_4_120
*904 FILLER_4_123
*905 FILLER_4_126
*906 FILLER_4_129
*907 FILLER_4_132
*908 FILLER_4_135
*909 FILLER_4_138
*910 FILLER_4_144
*911 FILLER_4_147
*912 FILLER_4_15
*913 FILLER_4_150
*914 FILLER_4_153
*915 FILLER_4_156
*916 FILLER_4_159
*917 FILLER_4_162
*918 FILLER_4_165
*919 FILLER_4_168
*920 FILLER_4_171
*921 FILLER_4_174
*922 FILLER_4_177
*923 FILLER_4_18
*924 FILLER_4_180
*925 FILLER_4_183
*926 FILLER_4_186
*927 FILLER_4_189
*928 FILLER_4_192
*929 FILLER_4_195
*930 FILLER_4_197
*931 FILLER_4_200
*932 FILLER_4_203
*933 FILLER_4_206
*934 FILLER_4_209
*935 FILLER_4_21
*936 FILLER_4_212
*937 FILLER_4_215
*938 FILLER_4_218
*939 FILLER_4_221
*940 FILLER_4_224
*941 FILLER_4_227
*942 FILLER_4_230
*943 FILLER_4_233
*944 FILLER_4_236
*945 FILLER_4_239
*946 FILLER_4_24
*947 FILLER_4_242
*948 FILLER_4_245
*949 FILLER_4_248
*950 FILLER_4_251
*951 FILLER_4_253
*952 FILLER_4_256
*953 FILLER_4_259
*954 FILLER_4_262
*955 FILLER_4_265
*956 FILLER_4_268
*957 FILLER_4_27
*958 FILLER_4_271
*959 FILLER_4_274
*960 FILLER_4_277
*961 FILLER_4_280
*962 FILLER_4_283
*963 FILLER_4_286
*964 FILLER_4_289
*965 FILLER_4_29
*966 FILLER_4_292
*967 FILLER_4_295
*968 FILLER_4_298
*969 FILLER_4_3
*970 FILLER_4_304
*971 FILLER_4_307
*972 FILLER_4_309
*973 FILLER_4_312
*974 FILLER_4_315
*975 FILLER_4_318
*976 FILLER_4_32
*977 FILLER_4_321
*978 FILLER_4_324
*979 FILLER_4_327
*980 FILLER_4_330
*981 FILLER_4_333
*982 FILLER_4_336
*983 FILLER_4_35
*984 FILLER_4_38
*985 FILLER_4_41
*986 FILLER_4_44
*987 FILLER_4_47
*988 FILLER_4_50
*989 FILLER_4_53
*990 FILLER_4_56
*991 FILLER_4_59
*992 FILLER_4_6
*993 FILLER_4_62
*994 FILLER_4_65
*995 FILLER_4_68
*996 FILLER_4_71
*997 FILLER_4_74
*998 FILLER_4_77
*999 FILLER_4_80
*1000 FILLER_4_83
*1001 FILLER_4_85
*1002 FILLER_4_88
*1003 FILLER_4_9
*1004 FILLER_4_91
*1005 FILLER_4_94
*1006 FILLER_4_97
*1007 FILLER_5_102
*1008 FILLER_5_105
*1009 FILLER_5_108
*1010 FILLER_5_111
*1011 FILLER_5_113
*1012 FILLER_5_116
*1013 FILLER_5_119
*1014 FILLER_5_12
*1015 FILLER_5_122
*1016 FILLER_5_125
*1017 FILLER_5_128
*1018 FILLER_5_131
*1019 FILLER_5_134
*1020 FILLER_5_137
*1021 FILLER_5_140
*1022 FILLER_5_143
*1023 FILLER_5_146
*1024 FILLER_5_149
*1025 FILLER_5_15
*1026 FILLER_5_152
*1027 FILLER_5_155
*1028 FILLER_5_158
*1029 FILLER_5_161
*1030 FILLER_5_164
*1031 FILLER_5_167
*1032 FILLER_5_169
*1033 FILLER_5_18
*1034 FILLER_5_195
*1035 FILLER_5_198
*1036 FILLER_5_201
*1037 FILLER_5_204
*1038 FILLER_5_207
*1039 FILLER_5_21
*1040 FILLER_5_210
*1041 FILLER_5_213
*1042 FILLER_5_216
*1043 FILLER_5_219
*1044 FILLER_5_222
*1045 FILLER_5_225
*1046 FILLER_5_228
*1047 FILLER_5_231
*1048 FILLER_5_234
*1049 FILLER_5_237
*1050 FILLER_5_24
*1051 FILLER_5_240
*1052 FILLER_5_243
*1053 FILLER_5_246
*1054 FILLER_5_249
*1055 FILLER_5_252
*1056 FILLER_5_255
*1057 FILLER_5_258
*1058 FILLER_5_261
*1059 FILLER_5_264
*1060 FILLER_5_267
*1061 FILLER_5_27
*1062 FILLER_5_270
*1063 FILLER_5_273
*1064 FILLER_5_276
*1065 FILLER_5_279
*1066 FILLER_5_281
*1067 FILLER_5_284
*1068 FILLER_5_287
*1069 FILLER_5_290
*1070 FILLER_5_293
*1071 FILLER_5_296
*1072 FILLER_5_299
*1073 FILLER_5_3
*1074 FILLER_5_30
*1075 FILLER_5_302
*1076 FILLER_5_305
*1077 FILLER_5_308
*1078 FILLER_5_311
*1079 FILLER_5_314
*1080 FILLER_5_317
*1081 FILLER_5_320
*1082 FILLER_5_323
*1083 FILLER_5_326
*1084 FILLER_5_329
*1085 FILLER_5_33
*1086 FILLER_5_332
*1087 FILLER_5_335
*1088 FILLER_5_337
*1089 FILLER_5_36
*1090 FILLER_5_39
*1091 FILLER_5_42
*1092 FILLER_5_45
*1093 FILLER_5_48
*1094 FILLER_5_51
*1095 FILLER_5_54
*1096 FILLER_5_57
*1097 FILLER_5_6
*1098 FILLER_5_60
*1099 FILLER_5_63
*1100 FILLER_5_66
*1101 FILLER_5_69
*1102 FILLER_5_72
*1103 FILLER_5_75
*1104 FILLER_5_78
*1105 FILLER_5_81
*1106 FILLER_5_84
*1107 FILLER_5_87
*1108 FILLER_5_9
*1109 FILLER_5_90
*1110 FILLER_5_93
*1111 FILLER_5_96
*1112 FILLER_5_99
*1113 FILLER_6_100
*1114 FILLER_6_103
*1115 FILLER_6_106
*1116 FILLER_6_109
*1117 FILLER_6_112
*1118 FILLER_6_115
*1119 FILLER_6_118
*1120 FILLER_6_12
*1121 FILLER_6_121
*1122 FILLER_6_124
*1123 FILLER_6_127
*1124 FILLER_6_130
*1125 FILLER_6_133
*1126 FILLER_6_136
*1127 FILLER_6_139
*1128 FILLER_6_141
*1129 FILLER_6_144
*1130 FILLER_6_147
*1131 FILLER_6_15
*1132 FILLER_6_150
*1133 FILLER_6_153
*1134 FILLER_6_161
*1135 FILLER_6_164
*1136 FILLER_6_167
*1137 FILLER_6_18
*1138 FILLER_6_182
*1139 FILLER_6_185
*1140 FILLER_6_188
*1141 FILLER_6_191
*1142 FILLER_6_194
*1143 FILLER_6_197
*1144 FILLER_6_200
*1145 FILLER_6_203
*1146 FILLER_6_206
*1147 FILLER_6_209
*1148 FILLER_6_21
*1149 FILLER_6_212
*1150 FILLER_6_215
*1151 FILLER_6_218
*1152 FILLER_6_221
*1153 FILLER_6_224
*1154 FILLER_6_227
*1155 FILLER_6_230
*1156 FILLER_6_233
*1157 FILLER_6_236
*1158 FILLER_6_239
*1159 FILLER_6_24
*1160 FILLER_6_242
*1161 FILLER_6_245
*1162 FILLER_6_248
*1163 FILLER_6_251
*1164 FILLER_6_253
*1165 FILLER_6_256
*1166 FILLER_6_259
*1167 FILLER_6_262
*1168 FILLER_6_265
*1169 FILLER_6_268
*1170 FILLER_6_27
*1171 FILLER_6_271
*1172 FILLER_6_274
*1173 FILLER_6_277
*1174 FILLER_6_280
*1175 FILLER_6_283
*1176 FILLER_6_286
*1177 FILLER_6_289
*1178 FILLER_6_29
*1179 FILLER_6_292
*1180 FILLER_6_295
*1181 FILLER_6_298
*1182 FILLER_6_3
*1183 FILLER_6_301
*1184 FILLER_6_304
*1185 FILLER_6_307
*1186 FILLER_6_309
*1187 FILLER_6_312
*1188 FILLER_6_315
*1189 FILLER_6_318
*1190 FILLER_6_32
*1191 FILLER_6_321
*1192 FILLER_6_324
*1193 FILLER_6_327
*1194 FILLER_6_330
*1195 FILLER_6_333
*1196 FILLER_6_336
*1197 FILLER_6_35
*1198 FILLER_6_38
*1199 FILLER_6_41
*1200 FILLER_6_44
*1201 FILLER_6_47
*1202 FILLER_6_50
*1203 FILLER_6_53
*1204 FILLER_6_56
*1205 FILLER_6_59
*1206 FILLER_6_6
*1207 FILLER_6_62
*1208 FILLER_6_65
*1209 FILLER_6_70
*1210 FILLER_6_73
*1211 FILLER_6_76
*1212 FILLER_6_79
*1213 FILLER_6_82
*1214 FILLER_6_85
*1215 FILLER_6_88
*1216 FILLER_6_9
*1217 FILLER_6_91
*1218 FILLER_6_94
*1219 FILLER_6_97
*1220 FILLER_7_100
*1221 FILLER_7_103
*1222 FILLER_7_106
*1223 FILLER_7_109
*1224 FILLER_7_113
*1225 FILLER_7_116
*1226 FILLER_7_119
*1227 FILLER_7_12
*1228 FILLER_7_122
*1229 FILLER_7_125
*1230 FILLER_7_15
*1231 FILLER_7_162
*1232 FILLER_7_165
*1233 FILLER_7_169
*1234 FILLER_7_172
*1235 FILLER_7_175
*1236 FILLER_7_178
*1237 FILLER_7_18
*1238 FILLER_7_181
*1239 FILLER_7_184
*1240 FILLER_7_187
*1241 FILLER_7_190
*1242 FILLER_7_193
*1243 FILLER_7_196
*1244 FILLER_7_199
*1245 FILLER_7_202
*1246 FILLER_7_205
*1247 FILLER_7_208
*1248 FILLER_7_21
*1249 FILLER_7_211
*1250 FILLER_7_214
*1251 FILLER_7_217
*1252 FILLER_7_220
*1253 FILLER_7_24
*1254 FILLER_7_243
*1255 FILLER_7_246
*1256 FILLER_7_249
*1257 FILLER_7_252
*1258 FILLER_7_255
*1259 FILLER_7_258
*1260 FILLER_7_261
*1261 FILLER_7_264
*1262 FILLER_7_267
*1263 FILLER_7_27
*1264 FILLER_7_270
*1265 FILLER_7_273
*1266 FILLER_7_276
*1267 FILLER_7_279
*1268 FILLER_7_281
*1269 FILLER_7_284
*1270 FILLER_7_287
*1271 FILLER_7_290
*1272 FILLER_7_293
*1273 FILLER_7_296
*1274 FILLER_7_299
*1275 FILLER_7_3
*1276 FILLER_7_302
*1277 FILLER_7_305
*1278 FILLER_7_308
*1279 FILLER_7_311
*1280 FILLER_7_314
*1281 FILLER_7_317
*1282 FILLER_7_320
*1283 FILLER_7_323
*1284 FILLER_7_326
*1285 FILLER_7_329
*1286 FILLER_7_332
*1287 FILLER_7_335
*1288 FILLER_7_337
*1289 FILLER_7_35
*1290 FILLER_7_46
*1291 FILLER_7_49
*1292 FILLER_7_52
*1293 FILLER_7_55
*1294 FILLER_7_57
*1295 FILLER_7_6
*1296 FILLER_7_73
*1297 FILLER_7_82
*1298 FILLER_7_85
*1299 FILLER_7_88
*1300 FILLER_7_9
*1301 FILLER_7_91
*1302 FILLER_7_94
*1303 FILLER_7_97
*1304 FILLER_8_100
*1305 FILLER_8_103
*1306 FILLER_8_106
*1307 FILLER_8_109
*1308 FILLER_8_112
*1309 FILLER_8_115
*1310 FILLER_8_118
*1311 FILLER_8_12
*1312 FILLER_8_125
*1313 FILLER_8_128
*1314 FILLER_8_131
*1315 FILLER_8_134
*1316 FILLER_8_137
*1317 FILLER_8_141
*1318 FILLER_8_144
*1319 FILLER_8_147
*1320 FILLER_8_15
*1321 FILLER_8_150
*1322 FILLER_8_153
*1323 FILLER_8_156
*1324 FILLER_8_159
*1325 FILLER_8_162
*1326 FILLER_8_165
*1327 FILLER_8_168
*1328 FILLER_8_171
*1329 FILLER_8_174
*1330 FILLER_8_177
*1331 FILLER_8_18
*1332 FILLER_8_180
*1333 FILLER_8_183
*1334 FILLER_8_186
*1335 FILLER_8_189
*1336 FILLER_8_192
*1337 FILLER_8_195
*1338 FILLER_8_197
*1339 FILLER_8_200
*1340 FILLER_8_203
*1341 FILLER_8_206
*1342 FILLER_8_209
*1343 FILLER_8_21
*1344 FILLER_8_212
*1345 FILLER_8_215
*1346 FILLER_8_218
*1347 FILLER_8_221
*1348 FILLER_8_224
*1349 FILLER_8_227
*1350 FILLER_8_230
*1351 FILLER_8_233
*1352 FILLER_8_236
*1353 FILLER_8_239
*1354 FILLER_8_242
*1355 FILLER_8_245
*1356 FILLER_8_251
*1357 FILLER_8_262
*1358 FILLER_8_267
*1359 FILLER_8_271
*1360 FILLER_8_275
*1361 FILLER_8_282
*1362 FILLER_8_285
*1363 FILLER_8_288
*1364 FILLER_8_291
*1365 FILLER_8_294
*1366 FILLER_8_297
*1367 FILLER_8_3
*1368 FILLER_8_300
*1369 FILLER_8_303
*1370 FILLER_8_307
*1371 FILLER_8_309
*1372 FILLER_8_312
*1373 FILLER_8_315
*1374 FILLER_8_318
*1375 FILLER_8_321
*1376 FILLER_8_324
*1377 FILLER_8_327
*1378 FILLER_8_330
*1379 FILLER_8_333
*1380 FILLER_8_336
*1381 FILLER_8_35
*1382 FILLER_8_38
*1383 FILLER_8_41
*1384 FILLER_8_44
*1385 FILLER_8_47
*1386 FILLER_8_50
*1387 FILLER_8_53
*1388 FILLER_8_56
*1389 FILLER_8_59
*1390 FILLER_8_6
*1391 FILLER_8_62
*1392 FILLER_8_65
*1393 FILLER_8_69
*1394 FILLER_8_72
*1395 FILLER_8_75
*1396 FILLER_8_78
*1397 FILLER_8_81
*1398 FILLER_8_85
*1399 FILLER_8_88
*1400 FILLER_8_9
*1401 FILLER_8_91
*1402 FILLER_8_94
*1403 FILLER_8_97
*1404 FILLER_9_101
*1405 FILLER_9_104
*1406 FILLER_9_107
*1407 FILLER_9_113
*1408 FILLER_9_130
*1409 FILLER_9_133
*1410 FILLER_9_136
*1411 FILLER_9_139
*1412 FILLER_9_142
*1413 FILLER_9_145
*1414 FILLER_9_148
*1415 FILLER_9_151
*1416 FILLER_9_154
*1417 FILLER_9_157
*1418 FILLER_9_160
*1419 FILLER_9_163
*1420 FILLER_9_169
*1421 FILLER_9_178
*1422 FILLER_9_181
*1423 FILLER_9_184
*1424 FILLER_9_195
*1425 FILLER_9_204
*1426 FILLER_9_208
*1427 FILLER_9_223
*1428 FILLER_9_225
*1429 FILLER_9_228
*1430 FILLER_9_231
*1431 FILLER_9_234
*1432 FILLER_9_237
*1433 FILLER_9_240
*1434 FILLER_9_243
*1435 FILLER_9_246
*1436 FILLER_9_249
*1437 FILLER_9_25
*1438 FILLER_9_252
*1439 FILLER_9_255
*1440 FILLER_9_258
*1441 FILLER_9_261
*1442 FILLER_9_264
*1443 FILLER_9_267
*1444 FILLER_9_270
*1445 FILLER_9_273
*1446 FILLER_9_276
*1447 FILLER_9_279
*1448 FILLER_9_28
*1449 FILLER_9_281
*1450 FILLER_9_284
*1451 FILLER_9_287
*1452 FILLER_9_293
*1453 FILLER_9_3
*1454 FILLER_9_308
*1455 FILLER_9_31
*1456 FILLER_9_317
*1457 FILLER_9_320
*1458 FILLER_9_324
*1459 FILLER_9_327
*1460 FILLER_9_330
*1461 FILLER_9_333
*1462 FILLER_9_337
*1463 FILLER_9_34
*1464 FILLER_9_37
*1465 FILLER_9_40
*1466 FILLER_9_43
*1467 FILLER_9_46
*1468 FILLER_9_49
*1469 FILLER_9_52
*1470 FILLER_9_55
*1471 FILLER_9_57
*1472 FILLER_9_6
*1473 FILLER_9_60
*1474 FILLER_9_63
*1475 FILLER_9_70
*1476 FILLER_9_73
*1477 FILLER_9_76
*1478 FILLER_9_79
*1479 FILLER_9_82
*1480 FILLER_9_85
*1481 FILLER_9_9
*1482 FILLER_9_92
*1483 FILLER_9_98
*1484 PHY_EDGE_ROW_0_Left_12
*1485 PHY_EDGE_ROW_0_Right_0
*1486 PHY_EDGE_ROW_10_Left_22
*1487 PHY_EDGE_ROW_10_Right_10
*1488 PHY_EDGE_ROW_11_Left_23
*1489 PHY_EDGE_ROW_11_Right_11
*1490 PHY_EDGE_ROW_1_Left_13
*1491 PHY_EDGE_ROW_1_Right_1
*1492 PHY_EDGE_ROW_2_Left_14
*1493 PHY_EDGE_ROW_2_Right_2
*1494 PHY_EDGE_ROW_3_Left_15
*1495 PHY_EDGE_ROW_3_Right_3
*1496 PHY_EDGE_ROW_4_Left_16
*1497 PHY_EDGE_ROW_4_Right_4
*1498 PHY_EDGE_ROW_5_Left_17
*1499 PHY_EDGE_ROW_5_Right_5
*1500 PHY_EDGE_ROW_6_Left_18
*1501 PHY_EDGE_ROW_6_Right_6
*1502 PHY_EDGE_ROW_7_Left_19
*1503 PHY_EDGE_ROW_7_Right_7
*1504 PHY_EDGE_ROW_8_Left_20
*1505 PHY_EDGE_ROW_8_Right_8
*1506 PHY_EDGE_ROW_9_Left_21
*1507 PHY_EDGE_ROW_9_Right_9
*1508 S_term_single_106
*1509 TAP_TAPCELL_ROW_0_24
*1510 TAP_TAPCELL_ROW_0_25
*1511 TAP_TAPCELL_ROW_0_26
*1512 TAP_TAPCELL_ROW_0_27
*1513 TAP_TAPCELL_ROW_0_28
*1514 TAP_TAPCELL_ROW_0_29
*1515 TAP_TAPCELL_ROW_0_30
*1516 TAP_TAPCELL_ROW_0_31
*1517 TAP_TAPCELL_ROW_0_32
*1518 TAP_TAPCELL_ROW_0_33
*1519 TAP_TAPCELL_ROW_0_34
*1520 TAP_TAPCELL_ROW_0_35
*1521 TAP_TAPCELL_ROW_10_90
*1522 TAP_TAPCELL_ROW_10_91
*1523 TAP_TAPCELL_ROW_10_92
*1524 TAP_TAPCELL_ROW_10_93
*1525 TAP_TAPCELL_ROW_10_94
*1526 TAP_TAPCELL_ROW_10_95
*1527 TAP_TAPCELL_ROW_11_100
*1528 TAP_TAPCELL_ROW_11_101
*1529 TAP_TAPCELL_ROW_11_102
*1530 TAP_TAPCELL_ROW_11_103
*1531 TAP_TAPCELL_ROW_11_104
*1532 TAP_TAPCELL_ROW_11_105
*1533 TAP_TAPCELL_ROW_11_106
*1534 TAP_TAPCELL_ROW_11_107
*1535 TAP_TAPCELL_ROW_11_96
*1536 TAP_TAPCELL_ROW_11_97
*1537 TAP_TAPCELL_ROW_11_98
*1538 TAP_TAPCELL_ROW_11_99
*1539 TAP_TAPCELL_ROW_1_36
*1540 TAP_TAPCELL_ROW_1_37
*1541 TAP_TAPCELL_ROW_1_38
*1542 TAP_TAPCELL_ROW_1_39
*1543 TAP_TAPCELL_ROW_1_40
*1544 TAP_TAPCELL_ROW_1_41
*1545 TAP_TAPCELL_ROW_2_42
*1546 TAP_TAPCELL_ROW_2_43
*1547 TAP_TAPCELL_ROW_2_44
*1548 TAP_TAPCELL_ROW_2_45
*1549 TAP_TAPCELL_ROW_2_46
*1550 TAP_TAPCELL_ROW_2_47
*1551 TAP_TAPCELL_ROW_3_48
*1552 TAP_TAPCELL_ROW_3_49
*1553 TAP_TAPCELL_ROW_3_50
*1554 TAP_TAPCELL_ROW_3_51
*1555 TAP_TAPCELL_ROW_3_52
*1556 TAP_TAPCELL_ROW_3_53
*1557 TAP_TAPCELL_ROW_4_54
*1558 TAP_TAPCELL_ROW_4_55
*1559 TAP_TAPCELL_ROW_4_56
*1560 TAP_TAPCELL_ROW_4_57
*1561 TAP_TAPCELL_ROW_4_58
*1562 TAP_TAPCELL_ROW_4_59
*1563 TAP_TAPCELL_ROW_5_60
*1564 TAP_TAPCELL_ROW_5_61
*1565 TAP_TAPCELL_ROW_5_62
*1566 TAP_TAPCELL_ROW_5_63
*1567 TAP_TAPCELL_ROW_5_64
*1568 TAP_TAPCELL_ROW_5_65
*1569 TAP_TAPCELL_ROW_6_66
*1570 TAP_TAPCELL_ROW_6_67
*1571 TAP_TAPCELL_ROW_6_68
*1572 TAP_TAPCELL_ROW_6_69
*1573 TAP_TAPCELL_ROW_6_70
*1574 TAP_TAPCELL_ROW_6_71
*1575 TAP_TAPCELL_ROW_7_72
*1576 TAP_TAPCELL_ROW_7_73
*1577 TAP_TAPCELL_ROW_7_74
*1578 TAP_TAPCELL_ROW_7_75
*1579 TAP_TAPCELL_ROW_7_76
*1580 TAP_TAPCELL_ROW_7_77
*1581 TAP_TAPCELL_ROW_8_78
*1582 TAP_TAPCELL_ROW_8_79
*1583 TAP_TAPCELL_ROW_8_80
*1584 TAP_TAPCELL_ROW_8_81
*1585 TAP_TAPCELL_ROW_8_82
*1586 TAP_TAPCELL_ROW_8_83
*1587 TAP_TAPCELL_ROW_9_84
*1588 TAP_TAPCELL_ROW_9_85
*1589 TAP_TAPCELL_ROW_9_86
*1590 TAP_TAPCELL_ROW_9_87
*1591 TAP_TAPCELL_ROW_9_88
*1592 TAP_TAPCELL_ROW_9_89
*1593 _001_
*1594 _002_
*1595 _003_
*1596 _004_
*1597 _005_
*1598 _006_
*1599 _007_
*1600 _008_
*1601 _009_
*1602 _010_
*1603 _011_
*1604 _012_
*1605 _013_
*1606 _014_
*1607 _015_
*1608 _016_
*1609 _017_
*1610 _018_
*1611 _019_
*1612 _020_
*1613 _021_
*1614 _022_
*1615 _023_
*1616 _024_
*1617 _025_
*1618 _026_
*1619 _027_
*1620 _028_
*1621 _029_
*1622 _030_
*1623 _031_
*1624 _032_
*1625 _033_
*1626 _034_
*1627 _035_
*1628 _036_
*1629 _037_
*1630 _038_
*1631 _039_
*1632 _040_
*1633 _041_
*1634 _042_
*1635 _043_
*1636 _044_
*1637 _045_
*1638 _046_
*1639 _047_
*1640 _048_
*1641 _049_
*1642 _050_
*1643 _051_
*1644 _052_
*1645 _053_
*1646 _054_
*1647 _055_
*1648 _056_
*1649 _057_
*1650 _058_
*1651 _059_
*1652 _060_
*1653 _061_
*1654 _062_
*1655 _063_
*1656 _064_