*SPEF "ieee 1481-1999"
*DESIGN "S_term_single2"
*DATE "12:05:13 Thursday May 08, 2025"
*VENDOR "The OpenROAD Project"
*PROGRAM "OpenROAD"
*VERSION "87af90f72f3f9be1fdfa1d886f0dd8d8b8f34694"
*DESIGN_FLOW "NAME_SCOPE LOCAL" "PIN_CAP NONE"
*DIVIDER /
*DELIMITER :
*BUS_DELIMITER []
*T_UNIT 1 NS
*C_UNIT 1 PF
*R_UNIT 1 OHM
*L_UNIT 1 HENRY

*NAME_MAP
*1 FrameData[0]
*2 FrameData[10]
*3 FrameData[11]
*4 FrameData[12]
*5 FrameData[13]
*6 FrameData[14]
*7 FrameData[15]
*8 FrameData[16]
*9 FrameData[17]
*10 FrameData[18]
*11 FrameData[19]
*12 FrameData[1]
*13 FrameData[20]
*14 FrameData[21]
*15 FrameData[22]
*16 FrameData[23]
*17 FrameData[24]
*18 FrameData[25]
*19 FrameData[26]
*20 FrameData[27]
*21 FrameData[28]
*22 FrameData[29]
*23 FrameData[2]
*24 FrameData[30]
*25 FrameData[31]
*26 FrameData[3]
*27 FrameData[4]
*28 FrameData[5]
*29 FrameData[6]
*30 FrameData[7]
*31 FrameData[8]
*32 FrameData[9]
*33 FrameData_O[0]
*34 FrameData_O[10]
*35 FrameData_O[11]
*36 FrameData_O[12]
*37 FrameData_O[13]
*38 FrameData_O[14]
*39 FrameData_O[15]
*40 FrameData_O[16]
*41 FrameData_O[17]
*42 FrameData_O[18]
*43 FrameData_O[19]
*44 FrameData_O[1]
*45 FrameData_O[20]
*46 FrameData_O[21]
*47 FrameData_O[22]
*48 FrameData_O[23]
*49 FrameData_O[24]
*50 FrameData_O[25]
*51 FrameData_O[26]
*52 FrameData_O[27]
*53 FrameData_O[28]
*54 FrameData_O[29]
*55 FrameData_O[2]
*56 FrameData_O[30]
*57 FrameData_O[31]
*58 FrameData_O[3]
*59 FrameData_O[4]
*60 FrameData_O[5]
*61 FrameData_O[6]
*62 FrameData_O[7]
*63 FrameData_O[8]
*64 FrameData_O[9]
*65 FrameStrobe[0]
*66 FrameStrobe[10]
*67 FrameStrobe[11]
*68 FrameStrobe[12]
*69 FrameStrobe[13]
*70 FrameStrobe[14]
*71 FrameStrobe[15]
*72 FrameStrobe[16]
*73 FrameStrobe[17]
*74 FrameStrobe[18]
*75 FrameStrobe[19]
*76 FrameStrobe[1]
*77 FrameStrobe[2]
*78 FrameStrobe[3]
*79 FrameStrobe[4]
*80 FrameStrobe[5]
*81 FrameStrobe[6]
*82 FrameStrobe[7]
*83 FrameStrobe[8]
*84 FrameStrobe[9]
*85 FrameStrobe_O[0]
*86 FrameStrobe_O[10]
*87 FrameStrobe_O[11]
*88 FrameStrobe_O[12]
*89 FrameStrobe_O[13]
*90 FrameStrobe_O[14]
*91 FrameStrobe_O[15]
*92 FrameStrobe_O[16]
*93 FrameStrobe_O[17]
*94 FrameStrobe_O[18]
*95 FrameStrobe_O[19]
*96 FrameStrobe_O[1]
*97 FrameStrobe_O[2]
*98 FrameStrobe_O[3]
*99 FrameStrobe_O[4]
*100 FrameStrobe_O[5]
*101 FrameStrobe_O[6]
*102 FrameStrobe_O[7]
*103 FrameStrobe_O[8]
*104 FrameStrobe_O[9]
*105 N1BEG[0]
*106 N1BEG[1]
*107 N1BEG[2]
*108 N1BEG[3]
*109 N2BEG[0]
*110 N2BEG[1]
*111 N2BEG[2]
*112 N2BEG[3]
*113 N2BEG[4]
*114 N2BEG[5]
*115 N2BEG[6]
*116 N2BEG[7]
*117 N2BEGb[0]
*118 N2BEGb[1]
*119 N2BEGb[2]
*120 N2BEGb[3]
*121 N2BEGb[4]
*122 N2BEGb[5]
*123 N2BEGb[6]
*124 N2BEGb[7]
*125 N4BEG[0]
*126 N4BEG[10]
*127 N4BEG[11]
*128 N4BEG[12]
*129 N4BEG[13]
*130 N4BEG[14]
*131 N4BEG[15]
*132 N4BEG[1]
*133 N4BEG[2]
*134 N4BEG[3]
*135 N4BEG[4]
*136 N4BEG[5]
*137 N4BEG[6]
*138 N4BEG[7]
*139 N4BEG[8]
*140 N4BEG[9]
*141 NN4BEG[0]
*142 NN4BEG[10]
*143 NN4BEG[11]
*144 NN4BEG[12]
*145 NN4BEG[13]
*146 NN4BEG[14]
*147 NN4BEG[15]
*148 NN4BEG[1]
*149 NN4BEG[2]
*150 NN4BEG[3]
*151 NN4BEG[4]
*152 NN4BEG[5]
*153 NN4BEG[6]
*154 NN4BEG[7]
*155 NN4BEG[8]
*156 NN4BEG[9]
*157 S1END[0]
*158 S1END[1]
*159 S1END[2]
*160 S1END[3]
*161 S2END[0]
*162 S2END[1]
*163 S2END[2]
*164 S2END[3]
*165 S2END[4]
*166 S2END[5]
*167 S2END[6]
*168 S2END[7]
*169 S2MID[0]
*170 S2MID[1]
*171 S2MID[2]
*172 S2MID[3]
*173 S2MID[4]
*174 S2MID[5]
*175 S2MID[6]
*176 S2MID[7]
*177 S4END[0]
*178 S4END[10]
*179 S4END[11]
*180 S4END[12]
*181 S4END[13]
*182 S4END[14]
*183 S4END[15]
*184 S4END[1]
*185 S4END[2]
*186 S4END[3]
*187 S4END[4]
*188 S4END[5]
*189 S4END[6]
*190 S4END[7]
*191 S4END[8]
*192 S4END[9]
*193 SS4END[0]
*194 SS4END[10]
*195 SS4END[11]
*196 SS4END[12]
*197 SS4END[13]
*198 SS4END[14]
*199 SS4END[15]
*200 SS4END[1]
*201 SS4END[2]
*202 SS4END[3]
*203 SS4END[4]
*204 SS4END[5]
*205 SS4END[6]
*206 SS4END[7]
*207 SS4END[8]
*208 SS4END[9]
*209 UserCLK
*210 UserCLKo
*213 net1
*214 net10
*215 net100
*216 net101
*217 net102
*218 net103
*219 net104
*220 net105
*221 net11
*222 net12
*223 net13
*224 net14
*225 net15
*226 net16
*227 net17
*228 net18
*229 net19
*230 net2
*231 net20
*232 net21
*233 net22
*234 net23
*235 net24
*236 net25
*237 net26
*238 net27
*239 net28
*240 net29
*241 net3
*242 net30
*243 net31
*244 net32
*245 net33
*246 net34
*247 net35
*248 net36
*249 net37
*250 net38
*251 net39
*252 net4
*253 net40
*254 net41
*255 net42
*256 net43
*257 net44
*258 net45
*259 net46
*260 net47
*261 net48
*262 net49
*263 net5
*264 net50
*265 net51
*266 net52
*267 net53
*268 net54
*269 net55
*270 net56
*271 net57
*272 net58
*273 net59
*274 net6
*275 net60
*276 net61
*277 net62
*278 net63
*279 net64
*280 net65
*281 net66
*282 net67
*283 net68
*284 net69
*285 net7
*286 net70
*287 net71
*288 net72
*289 net73
*290 net74
*291 net75
*292 net76
*293 net77
*294 net78
*295 net79
*296 net8
*297 net80
*298 net81
*299 net82
*300 net83
*301 net84
*302 net85
*303 net86
*304 net87
*305 net88
*306 net89
*307 net9
*308 net90
*309 net91
*310 net92
*311 net93
*312 net94
*313 net95
*314 net96
*315 net97
*316 net98
*317 net99
*318 ANTENNA_1
*319 ANTENNA_10
*320 ANTENNA_11
*321 ANTENNA_12
*322 ANTENNA_13
*323 ANTENNA_14
*324 ANTENNA_15
*325 ANTENNA_16
*326 ANTENNA_17
*327 ANTENNA_18
*328 ANTENNA_19
*329 ANTENNA_2
*330 ANTENNA_20
*331 ANTENNA_21
*332 ANTENNA_22
*333 ANTENNA_23
*334 ANTENNA_24
*335 ANTENNA_25
*336 ANTENNA_26
*337 ANTENNA_27
*338 ANTENNA_28
*339 ANTENNA_29
*340 ANTENNA_3
*341 ANTENNA_30
*342 ANTENNA_31
*343 ANTENNA_32
*344 ANTENNA_33
*345 ANTENNA_34
*346 ANTENNA_4
*347 ANTENNA_5
*348 ANTENNA_6
*349 ANTENNA_7
*350 ANTENNA_8
*351 ANTENNA_9
*352 FILLER_0_100
*353 FILLER_0_103
*354 FILLER_0_106
*355 FILLER_0_109
*356 FILLER_0_113
*357 FILLER_0_116
*358 FILLER_0_119
*359 FILLER_0_12
*360 FILLER_0_122
*361 FILLER_0_125
*362 FILLER_0_128
*363 FILLER_0_131
*364 FILLER_0_134
*365 FILLER_0_137
*366 FILLER_0_141
*367 FILLER_0_144
*368 FILLER_0_147
*369 FILLER_0_15
*370 FILLER_0_150
*371 FILLER_0_153
*372 FILLER_0_156
*373 FILLER_0_159
*374 FILLER_0_162
*375 FILLER_0_165
*376 FILLER_0_169
*377 FILLER_0_172
*378 FILLER_0_175
*379 FILLER_0_178
*380 FILLER_0_18
*381 FILLER_0_181
*382 FILLER_0_184
*383 FILLER_0_187
*384 FILLER_0_190
*385 FILLER_0_193
*386 FILLER_0_197
*387 FILLER_0_200
*388 FILLER_0_203
*389 FILLER_0_206
*390 FILLER_0_209
*391 FILLER_0_21
*392 FILLER_0_212
*393 FILLER_0_215
*394 FILLER_0_218
*395 FILLER_0_221
*396 FILLER_0_225
*397 FILLER_0_228
*398 FILLER_0_231
*399 FILLER_0_234
*400 FILLER_0_237
*401 FILLER_0_24
*402 FILLER_0_240
*403 FILLER_0_243
*404 FILLER_0_246
*405 FILLER_0_249
*406 FILLER_0_253
*407 FILLER_0_256
*408 FILLER_0_259
*409 FILLER_0_262
*410 FILLER_0_265
*411 FILLER_0_268
*412 FILLER_0_27
*413 FILLER_0_271
*414 FILLER_0_274
*415 FILLER_0_277
*416 FILLER_0_281
*417 FILLER_0_284
*418 FILLER_0_287
*419 FILLER_0_29
*420 FILLER_0_290
*421 FILLER_0_293
*422 FILLER_0_296
*423 FILLER_0_299
*424 FILLER_0_3
*425 FILLER_0_302
*426 FILLER_0_305
*427 FILLER_0_309
*428 FILLER_0_312
*429 FILLER_0_315
*430 FILLER_0_318
*431 FILLER_0_32
*432 FILLER_0_321
*433 FILLER_0_324
*434 FILLER_0_327
*435 FILLER_0_330
*436 FILLER_0_333
*437 FILLER_0_337
*438 FILLER_0_340
*439 FILLER_0_343
*440 FILLER_0_346
*441 FILLER_0_349
*442 FILLER_0_35
*443 FILLER_0_352
*444 FILLER_0_355
*445 FILLER_0_358
*446 FILLER_0_361
*447 FILLER_0_365
*448 FILLER_0_368
*449 FILLER_0_371
*450 FILLER_0_374
*451 FILLER_0_377
*452 FILLER_0_38
*453 FILLER_0_380
*454 FILLER_0_383
*455 FILLER_0_386
*456 FILLER_0_389
*457 FILLER_0_393
*458 FILLER_0_396
*459 FILLER_0_399
*460 FILLER_0_402
*461 FILLER_0_405
*462 FILLER_0_408
*463 FILLER_0_41
*464 FILLER_0_411
*465 FILLER_0_414
*466 FILLER_0_417
*467 FILLER_0_421
*468 FILLER_0_424
*469 FILLER_0_427
*470 FILLER_0_430
*471 FILLER_0_433
*472 FILLER_0_436
*473 FILLER_0_439
*474 FILLER_0_44
*475 FILLER_0_442
*476 FILLER_0_445
*477 FILLER_0_449
*478 FILLER_0_452
*479 FILLER_0_47
*480 FILLER_0_50
*481 FILLER_0_53
*482 FILLER_0_57
*483 FILLER_0_6
*484 FILLER_0_60
*485 FILLER_0_63
*486 FILLER_0_66
*487 FILLER_0_69
*488 FILLER_0_72
*489 FILLER_0_75
*490 FILLER_0_78
*491 FILLER_0_81
*492 FILLER_0_85
*493 FILLER_0_88
*494 FILLER_0_9
*495 FILLER_0_91
*496 FILLER_0_94
*497 FILLER_0_97
*498 FILLER_10_102
*499 FILLER_10_110
*500 FILLER_10_113
*501 FILLER_10_125
*502 FILLER_10_128
*503 FILLER_10_131
*504 FILLER_10_134
*505 FILLER_10_137
*506 FILLER_10_141
*507 FILLER_10_146
*508 FILLER_10_149
*509 FILLER_10_15
*510 FILLER_10_152
*511 FILLER_10_155
*512 FILLER_10_158
*513 FILLER_10_162
*514 FILLER_10_168
*515 FILLER_10_176
*516 FILLER_10_179
*517 FILLER_10_18
*518 FILLER_10_185
*519 FILLER_10_188
*520 FILLER_10_191
*521 FILLER_10_194
*522 FILLER_10_202
*523 FILLER_10_205
*524 FILLER_10_208
*525 FILLER_10_21
*526 FILLER_10_211
*527 FILLER_10_214
*528 FILLER_10_217
*529 FILLER_10_220
*530 FILLER_10_227
*531 FILLER_10_230
*532 FILLER_10_233
*533 FILLER_10_236
*534 FILLER_10_239
*535 FILLER_10_24
*536 FILLER_10_242
*537 FILLER_10_245
*538 FILLER_10_248
*539 FILLER_10_251
*540 FILLER_10_253
*541 FILLER_10_256
*542 FILLER_10_259
*543 FILLER_10_265
*544 FILLER_10_269
*545 FILLER_10_27
*546 FILLER_10_272
*547 FILLER_10_275
*548 FILLER_10_284
*549 FILLER_10_287
*550 FILLER_10_29
*551 FILLER_10_291
*552 FILLER_10_294
*553 FILLER_10_300
*554 FILLER_10_303
*555 FILLER_10_306
*556 FILLER_10_309
*557 FILLER_10_312
*558 FILLER_10_316
*559 FILLER_10_319
*560 FILLER_10_322
*561 FILLER_10_325
*562 FILLER_10_328
*563 FILLER_10_331
*564 FILLER_10_334
*565 FILLER_10_337
*566 FILLER_10_34
*567 FILLER_10_340
*568 FILLER_10_343
*569 FILLER_10_346
*570 FILLER_10_349
*571 FILLER_10_352
*572 FILLER_10_355
*573 FILLER_10_358
*574 FILLER_10_361
*575 FILLER_10_365
*576 FILLER_10_368
*577 FILLER_10_37
*578 FILLER_10_371
*579 FILLER_10_374
*580 FILLER_10_377
*581 FILLER_10_382
*582 FILLER_10_385
*583 FILLER_10_388
*584 FILLER_10_391
*585 FILLER_10_394
*586 FILLER_10_397
*587 FILLER_10_40
*588 FILLER_10_400
*589 FILLER_10_404
*590 FILLER_10_407
*591 FILLER_10_410
*592 FILLER_10_413
*593 FILLER_10_416
*594 FILLER_10_419
*595 FILLER_10_424
*596 FILLER_10_427
*597 FILLER_10_432
*598 FILLER_10_438
*599 FILLER_10_441
*600 FILLER_10_46
*601 FILLER_10_470
*602 FILLER_10_49
*603 FILLER_10_52
*604 FILLER_10_55
*605 FILLER_10_62
*606 FILLER_10_65
*607 FILLER_10_68
*608 FILLER_10_71
*609 FILLER_10_74
*610 FILLER_10_77
*611 FILLER_10_80
*612 FILLER_10_83
*613 FILLER_10_85
*614 FILLER_10_90
*615 FILLER_10_96
*616 FILLER_11_113
*617 FILLER_11_141
*618 FILLER_11_169
*619 FILLER_11_194
*620 FILLER_11_201
*621 FILLER_11_204
*622 FILLER_11_207
*623 FILLER_11_210
*624 FILLER_11_213
*625 FILLER_11_216
*626 FILLER_11_219
*627 FILLER_11_222
*628 FILLER_11_225
*629 FILLER_11_228
*630 FILLER_11_231
*631 FILLER_11_234
*632 FILLER_11_237
*633 FILLER_11_240
*634 FILLER_11_243
*635 FILLER_11_246
*636 FILLER_11_249
*637 FILLER_11_253
*638 FILLER_11_256
*639 FILLER_11_259
*640 FILLER_11_262
*641 FILLER_11_265
*642 FILLER_11_268
*643 FILLER_11_271
*644 FILLER_11_274
*645 FILLER_11_277
*646 FILLER_11_281
*647 FILLER_11_284
*648 FILLER_11_287
*649 FILLER_11_29
*650 FILLER_11_290
*651 FILLER_11_293
*652 FILLER_11_296
*653 FILLER_11_299
*654 FILLER_11_3
*655 FILLER_11_302
*656 FILLER_11_305
*657 FILLER_11_309
*658 FILLER_11_312
*659 FILLER_11_315
*660 FILLER_11_318
*661 FILLER_11_321
*662 FILLER_11_324
*663 FILLER_11_327
*664 FILLER_11_330
*665 FILLER_11_333
*666 FILLER_11_337
*667 FILLER_11_340
*668 FILLER_11_343
*669 FILLER_11_346
*670 FILLER_11_349
*671 FILLER_11_352
*672 FILLER_11_355
*673 FILLER_11_358
*674 FILLER_11_361
*675 FILLER_11_365
*676 FILLER_11_368
*677 FILLER_11_371
*678 FILLER_11_374
*679 FILLER_11_377
*680 FILLER_11_380
*681 FILLER_11_383
*682 FILLER_11_386
*683 FILLER_11_389
*684 FILLER_11_393
*685 FILLER_11_396
*686 FILLER_11_399
*687 FILLER_11_402
*688 FILLER_11_405
*689 FILLER_11_409
*690 FILLER_11_418
*691 FILLER_11_445
*692 FILLER_11_57
*693 FILLER_11_85
*694 FILLER_1_101
*695 FILLER_1_104
*696 FILLER_1_111
*697 FILLER_1_113
*698 FILLER_1_116
*699 FILLER_1_119
*700 FILLER_1_125
*701 FILLER_1_128
*702 FILLER_1_13
*703 FILLER_1_131
*704 FILLER_1_134
*705 FILLER_1_137
*706 FILLER_1_140
*707 FILLER_1_143
*708 FILLER_1_146
*709 FILLER_1_153
*710 FILLER_1_156
*711 FILLER_1_16
*712 FILLER_1_164
*713 FILLER_1_167
*714 FILLER_1_169
*715 FILLER_1_172
*716 FILLER_1_175
*717 FILLER_1_178
*718 FILLER_1_188
*719 FILLER_1_19
*720 FILLER_1_191
*721 FILLER_1_194
*722 FILLER_1_197
*723 FILLER_1_200
*724 FILLER_1_203
*725 FILLER_1_211
*726 FILLER_1_214
*727 FILLER_1_217
*728 FILLER_1_22
*729 FILLER_1_225
*730 FILLER_1_228
*731 FILLER_1_231
*732 FILLER_1_234
*733 FILLER_1_237
*734 FILLER_1_240
*735 FILLER_1_243
*736 FILLER_1_246
*737 FILLER_1_25
*738 FILLER_1_250
*739 FILLER_1_256
*740 FILLER_1_259
*741 FILLER_1_262
*742 FILLER_1_268
*743 FILLER_1_271
*744 FILLER_1_274
*745 FILLER_1_279
*746 FILLER_1_28
*747 FILLER_1_281
*748 FILLER_1_284
*749 FILLER_1_287
*750 FILLER_1_294
*751 FILLER_1_297
*752 FILLER_1_3
*753 FILLER_1_300
*754 FILLER_1_303
*755 FILLER_1_306
*756 FILLER_1_309
*757 FILLER_1_31
*758 FILLER_1_312
*759 FILLER_1_315
*760 FILLER_1_318
*761 FILLER_1_324
*762 FILLER_1_327
*763 FILLER_1_330
*764 FILLER_1_333
*765 FILLER_1_337
*766 FILLER_1_34
*767 FILLER_1_340
*768 FILLER_1_343
*769 FILLER_1_346
*770 FILLER_1_349
*771 FILLER_1_352
*772 FILLER_1_355
*773 FILLER_1_358
*774 FILLER_1_361
*775 FILLER_1_364
*776 FILLER_1_367
*777 FILLER_1_37
*778 FILLER_1_370
*779 FILLER_1_373
*780 FILLER_1_376
*781 FILLER_1_379
*782 FILLER_1_385
*783 FILLER_1_388
*784 FILLER_1_391
*785 FILLER_1_396
*786 FILLER_1_399
*787 FILLER_1_40
*788 FILLER_1_405
*789 FILLER_1_408
*790 FILLER_1_411
*791 FILLER_1_414
*792 FILLER_1_417
*793 FILLER_1_420
*794 FILLER_1_423
*795 FILLER_1_426
*796 FILLER_1_429
*797 FILLER_1_43
*798 FILLER_1_432
*799 FILLER_1_435
*800 FILLER_1_438
*801 FILLER_1_441
*802 FILLER_1_444
*803 FILLER_1_447
*804 FILLER_1_449
*805 FILLER_1_452
*806 FILLER_1_455
*807 FILLER_1_458
*808 FILLER_1_46
*809 FILLER_1_49
*810 FILLER_1_52
*811 FILLER_1_55
*812 FILLER_1_57
*813 FILLER_1_6
*814 FILLER_1_60
*815 FILLER_1_63
*816 FILLER_1_66
*817 FILLER_1_69
*818 FILLER_1_72
*819 FILLER_1_78
*820 FILLER_1_81
*821 FILLER_1_84
*822 FILLER_1_87
*823 FILLER_1_90
*824 FILLER_1_93
*825 FILLER_1_98
*826 FILLER_2_100
*827 FILLER_2_103
*828 FILLER_2_106
*829 FILLER_2_109
*830 FILLER_2_112
*831 FILLER_2_115
*832 FILLER_2_12
*833 FILLER_2_121
*834 FILLER_2_124
*835 FILLER_2_127
*836 FILLER_2_130
*837 FILLER_2_133
*838 FILLER_2_139
*839 FILLER_2_141
*840 FILLER_2_144
*841 FILLER_2_147
*842 FILLER_2_15
*843 FILLER_2_152
*844 FILLER_2_155
*845 FILLER_2_158
*846 FILLER_2_161
*847 FILLER_2_164
*848 FILLER_2_167
*849 FILLER_2_170
*850 FILLER_2_173
*851 FILLER_2_176
*852 FILLER_2_179
*853 FILLER_2_18
*854 FILLER_2_182
*855 FILLER_2_186
*856 FILLER_2_189
*857 FILLER_2_192
*858 FILLER_2_195
*859 FILLER_2_197
*860 FILLER_2_208
*861 FILLER_2_21
*862 FILLER_2_211
*863 FILLER_2_214
*864 FILLER_2_217
*865 FILLER_2_220
*866 FILLER_2_223
*867 FILLER_2_226
*868 FILLER_2_229
*869 FILLER_2_232
*870 FILLER_2_238
*871 FILLER_2_24
*872 FILLER_2_241
*873 FILLER_2_244
*874 FILLER_2_247
*875 FILLER_2_250
*876 FILLER_2_253
*877 FILLER_2_256
*878 FILLER_2_259
*879 FILLER_2_262
*880 FILLER_2_265
*881 FILLER_2_268
*882 FILLER_2_27
*883 FILLER_2_271
*884 FILLER_2_274
*885 FILLER_2_277
*886 FILLER_2_280
*887 FILLER_2_283
*888 FILLER_2_286
*889 FILLER_2_289
*890 FILLER_2_29
*891 FILLER_2_292
*892 FILLER_2_295
*893 FILLER_2_298
*894 FILLER_2_3
*895 FILLER_2_301
*896 FILLER_2_304
*897 FILLER_2_307
*898 FILLER_2_309
*899 FILLER_2_312
*900 FILLER_2_315
*901 FILLER_2_318
*902 FILLER_2_32
*903 FILLER_2_321
*904 FILLER_2_324
*905 FILLER_2_327
*906 FILLER_2_330
*907 FILLER_2_333
*908 FILLER_2_336
*909 FILLER_2_339
*910 FILLER_2_342
*911 FILLER_2_345
*912 FILLER_2_348
*913 FILLER_2_35
*914 FILLER_2_351
*915 FILLER_2_354
*916 FILLER_2_357
*917 FILLER_2_360
*918 FILLER_2_363
*919 FILLER_2_365
*920 FILLER_2_368
*921 FILLER_2_371
*922 FILLER_2_374
*923 FILLER_2_377
*924 FILLER_2_38
*925 FILLER_2_380
*926 FILLER_2_383
*927 FILLER_2_386
*928 FILLER_2_389
*929 FILLER_2_392
*930 FILLER_2_395
*931 FILLER_2_398
*932 FILLER_2_401
*933 FILLER_2_404
*934 FILLER_2_407
*935 FILLER_2_41
*936 FILLER_2_410
*937 FILLER_2_413
*938 FILLER_2_416
*939 FILLER_2_419
*940 FILLER_2_421
*941 FILLER_2_424
*942 FILLER_2_427
*943 FILLER_2_430
*944 FILLER_2_433
*945 FILLER_2_436
*946 FILLER_2_439
*947 FILLER_2_44
*948 FILLER_2_442
*949 FILLER_2_445
*950 FILLER_2_448
*951 FILLER_2_451
*952 FILLER_2_454
*953 FILLER_2_457
*954 FILLER_2_460
*955 FILLER_2_463
*956 FILLER_2_47
*957 FILLER_2_50
*958 FILLER_2_53
*959 FILLER_2_56
*960 FILLER_2_59
*961 FILLER_2_6
*962 FILLER_2_62
*963 FILLER_2_65
*964 FILLER_2_68
*965 FILLER_2_71
*966 FILLER_2_74
*967 FILLER_2_77
*968 FILLER_2_80
*969 FILLER_2_83
*970 FILLER_2_85
*971 FILLER_2_9
*972 FILLER_2_91
*973 FILLER_2_94
*974 FILLER_2_97
*975 FILLER_3_102
*976 FILLER_3_105
*977 FILLER_3_108
*978 FILLER_3_111
*979 FILLER_3_113
*980 FILLER_3_116
*981 FILLER_3_119
*982 FILLER_3_12
*983 FILLER_3_122
*984 FILLER_3_125
*985 FILLER_3_128
*986 FILLER_3_131
*987 FILLER_3_134
*988 FILLER_3_137
*989 FILLER_3_140
*990 FILLER_3_143
*991 FILLER_3_146
*992 FILLER_3_149
*993 FILLER_3_15
*994 FILLER_3_152
*995 FILLER_3_155
*996 FILLER_3_158
*997 FILLER_3_161
*998 FILLER_3_167
*999 FILLER_3_169
*1000 FILLER_3_172
*1001 FILLER_3_175
*1002 FILLER_3_178
*1003 FILLER_3_18
*1004 FILLER_3_181
*1005 FILLER_3_184
*1006 FILLER_3_187
*1007 FILLER_3_190
*1008 FILLER_3_193
*1009 FILLER_3_196
*1010 FILLER_3_199
*1011 FILLER_3_202
*1012 FILLER_3_205
*1013 FILLER_3_208
*1014 FILLER_3_21
*1015 FILLER_3_211
*1016 FILLER_3_214
*1017 FILLER_3_217
*1018 FILLER_3_220
*1019 FILLER_3_223
*1020 FILLER_3_230
*1021 FILLER_3_233
*1022 FILLER_3_236
*1023 FILLER_3_239
*1024 FILLER_3_24
*1025 FILLER_3_246
*1026 FILLER_3_249
*1027 FILLER_3_256
*1028 FILLER_3_259
*1029 FILLER_3_262
*1030 FILLER_3_265
*1031 FILLER_3_27
*1032 FILLER_3_271
*1033 FILLER_3_274
*1034 FILLER_3_277
*1035 FILLER_3_286
*1036 FILLER_3_289
*1037 FILLER_3_292
*1038 FILLER_3_295
*1039 FILLER_3_298
*1040 FILLER_3_3
*1041 FILLER_3_30
*1042 FILLER_3_301
*1043 FILLER_3_304
*1044 FILLER_3_307
*1045 FILLER_3_310
*1046 FILLER_3_313
*1047 FILLER_3_316
*1048 FILLER_3_319
*1049 FILLER_3_322
*1050 FILLER_3_325
*1051 FILLER_3_328
*1052 FILLER_3_33
*1053 FILLER_3_331
*1054 FILLER_3_334
*1055 FILLER_3_340
*1056 FILLER_3_343
*1057 FILLER_3_346
*1058 FILLER_3_349
*1059 FILLER_3_352
*1060 FILLER_3_355
*1061 FILLER_3_358
*1062 FILLER_3_36
*1063 FILLER_3_361
*1064 FILLER_3_364
*1065 FILLER_3_367
*1066 FILLER_3_370
*1067 FILLER_3_373
*1068 FILLER_3_376
*1069 FILLER_3_379
*1070 FILLER_3_382
*1071 FILLER_3_385
*1072 FILLER_3_388
*1073 FILLER_3_39
*1074 FILLER_3_391
*1075 FILLER_3_393
*1076 FILLER_3_396
*1077 FILLER_3_399
*1078 FILLER_3_402
*1079 FILLER_3_405
*1080 FILLER_3_408
*1081 FILLER_3_411
*1082 FILLER_3_414
*1083 FILLER_3_417
*1084 FILLER_3_42
*1085 FILLER_3_420
*1086 FILLER_3_423
*1087 FILLER_3_426
*1088 FILLER_3_429
*1089 FILLER_3_432
*1090 FILLER_3_435
*1091 FILLER_3_438
*1092 FILLER_3_441
*1093 FILLER_3_444
*1094 FILLER_3_447
*1095 FILLER_3_449
*1096 FILLER_3_45
*1097 FILLER_3_452
*1098 FILLER_3_455
*1099 FILLER_3_458
*1100 FILLER_3_461
*1101 FILLER_3_464
*1102 FILLER_3_48
*1103 FILLER_3_51
*1104 FILLER_3_54
*1105 FILLER_3_57
*1106 FILLER_3_6
*1107 FILLER_3_60
*1108 FILLER_3_63
*1109 FILLER_3_66
*1110 FILLER_3_69
*1111 FILLER_3_72
*1112 FILLER_3_75
*1113 FILLER_3_78
*1114 FILLER_3_81
*1115 FILLER_3_84
*1116 FILLER_3_87
*1117 FILLER_3_9
*1118 FILLER_3_90
*1119 FILLER_3_93
*1120 FILLER_3_96
*1121 FILLER_3_99
*1122 FILLER_4_100
*1123 FILLER_4_103
*1124 FILLER_4_106
*1125 FILLER_4_109
*1126 FILLER_4_112
*1127 FILLER_4_115
*1128 FILLER_4_118
*1129 FILLER_4_12
*1130 FILLER_4_121
*1131 FILLER_4_124
*1132 FILLER_4_127
*1133 FILLER_4_130
*1134 FILLER_4_133
*1135 FILLER_4_136
*1136 FILLER_4_139
*1137 FILLER_4_141
*1138 FILLER_4_144
*1139 FILLER_4_147
*1140 FILLER_4_15
*1141 FILLER_4_150
*1142 FILLER_4_153
*1143 FILLER_4_156
*1144 FILLER_4_159
*1145 FILLER_4_162
*1146 FILLER_4_165
*1147 FILLER_4_168
*1148 FILLER_4_171
*1149 FILLER_4_174
*1150 FILLER_4_177
*1151 FILLER_4_18
*1152 FILLER_4_180
*1153 FILLER_4_183
*1154 FILLER_4_189
*1155 FILLER_4_193
*1156 FILLER_4_197
*1157 FILLER_4_200
*1158 FILLER_4_206
*1159 FILLER_4_209
*1160 FILLER_4_21
*1161 FILLER_4_212
*1162 FILLER_4_215
*1163 FILLER_4_218
*1164 FILLER_4_221
*1165 FILLER_4_224
*1166 FILLER_4_227
*1167 FILLER_4_230
*1168 FILLER_4_233
*1169 FILLER_4_236
*1170 FILLER_4_239
*1171 FILLER_4_24
*1172 FILLER_4_242
*1173 FILLER_4_245
*1174 FILLER_4_248
*1175 FILLER_4_251
*1176 FILLER_4_253
*1177 FILLER_4_256
*1178 FILLER_4_259
*1179 FILLER_4_262
*1180 FILLER_4_265
*1181 FILLER_4_268
*1182 FILLER_4_27
*1183 FILLER_4_271
*1184 FILLER_4_274
*1185 FILLER_4_277
*1186 FILLER_4_280
*1187 FILLER_4_283
*1188 FILLER_4_286
*1189 FILLER_4_289
*1190 FILLER_4_29
*1191 FILLER_4_292
*1192 FILLER_4_295
*1193 FILLER_4_298
*1194 FILLER_4_3
*1195 FILLER_4_301
*1196 FILLER_4_304
*1197 FILLER_4_307
*1198 FILLER_4_309
*1199 FILLER_4_312
*1200 FILLER_4_315
*1201 FILLER_4_318
*1202 FILLER_4_32
*1203 FILLER_4_321
*1204 FILLER_4_324
*1205 FILLER_4_327
*1206 FILLER_4_330
*1207 FILLER_4_333
*1208 FILLER_4_336
*1209 FILLER_4_339
*1210 FILLER_4_342
*1211 FILLER_4_345
*1212 FILLER_4_35
*1213 FILLER_4_350
*1214 FILLER_4_353
*1215 FILLER_4_356
*1216 FILLER_4_359
*1217 FILLER_4_362
*1218 FILLER_4_365
*1219 FILLER_4_368
*1220 FILLER_4_371
*1221 FILLER_4_374
*1222 FILLER_4_377
*1223 FILLER_4_38
*1224 FILLER_4_380
*1225 FILLER_4_383
*1226 FILLER_4_386
*1227 FILLER_4_389
*1228 FILLER_4_392
*1229 FILLER_4_395
*1230 FILLER_4_398
*1231 FILLER_4_401
*1232 FILLER_4_404
*1233 FILLER_4_407
*1234 FILLER_4_41
*1235 FILLER_4_410
*1236 FILLER_4_413
*1237 FILLER_4_417
*1238 FILLER_4_421
*1239 FILLER_4_424
*1240 FILLER_4_427
*1241 FILLER_4_430
*1242 FILLER_4_436
*1243 FILLER_4_439
*1244 FILLER_4_44
*1245 FILLER_4_442
*1246 FILLER_4_445
*1247 FILLER_4_448
*1248 FILLER_4_451
*1249 FILLER_4_454
*1250 FILLER_4_457
*1251 FILLER_4_460
*1252 FILLER_4_463
*1253 FILLER_4_47
*1254 FILLER_4_50
*1255 FILLER_4_53
*1256 FILLER_4_56
*1257 FILLER_4_59
*1258 FILLER_4_6
*1259 FILLER_4_62
*1260 FILLER_4_65
*1261 FILLER_4_68
*1262 FILLER_4_71
*1263 FILLER_4_74
*1264 FILLER_4_77
*1265 FILLER_4_80
*1266 FILLER_4_83
*1267 FILLER_4_85
*1268 FILLER_4_88
*1269 FILLER_4_9
*1270 FILLER_4_91
*1271 FILLER_4_94
*1272 FILLER_4_97
*1273 FILLER_5_102
*1274 FILLER_5_105
*1275 FILLER_5_108
*1276 FILLER_5_111
*1277 FILLER_5_113
*1278 FILLER_5_116
*1279 FILLER_5_119
*1280 FILLER_5_12
*1281 FILLER_5_122
*1282 FILLER_5_125
*1283 FILLER_5_128
*1284 FILLER_5_131
*1285 FILLER_5_134
*1286 FILLER_5_137
*1287 FILLER_5_140
*1288 FILLER_5_143
*1289 FILLER_5_146
*1290 FILLER_5_149
*1291 FILLER_5_15
*1292 FILLER_5_152
*1293 FILLER_5_155
*1294 FILLER_5_158
*1295 FILLER_5_161
*1296 FILLER_5_164
*1297 FILLER_5_167
*1298 FILLER_5_169
*1299 FILLER_5_172
*1300 FILLER_5_175
*1301 FILLER_5_178
*1302 FILLER_5_18
*1303 FILLER_5_181
*1304 FILLER_5_184
*1305 FILLER_5_187
*1306 FILLER_5_190
*1307 FILLER_5_193
*1308 FILLER_5_196
*1309 FILLER_5_199
*1310 FILLER_5_202
*1311 FILLER_5_205
*1312 FILLER_5_208
*1313 FILLER_5_21
*1314 FILLER_5_211
*1315 FILLER_5_214
*1316 FILLER_5_217
*1317 FILLER_5_220
*1318 FILLER_5_223
*1319 FILLER_5_225
*1320 FILLER_5_228
*1321 FILLER_5_231
*1322 FILLER_5_234
*1323 FILLER_5_24
*1324 FILLER_5_243
*1325 FILLER_5_246
*1326 FILLER_5_252
*1327 FILLER_5_255
*1328 FILLER_5_258
*1329 FILLER_5_261
*1330 FILLER_5_264
*1331 FILLER_5_267
*1332 FILLER_5_27
*1333 FILLER_5_270
*1334 FILLER_5_273
*1335 FILLER_5_276
*1336 FILLER_5_279
*1337 FILLER_5_281
*1338 FILLER_5_284
*1339 FILLER_5_287
*1340 FILLER_5_290
*1341 FILLER_5_293
*1342 FILLER_5_296
*1343 FILLER_5_299
*1344 FILLER_5_3
*1345 FILLER_5_30
*1346 FILLER_5_302
*1347 FILLER_5_305
*1348 FILLER_5_308
*1349 FILLER_5_311
*1350 FILLER_5_314
*1351 FILLER_5_317
*1352 FILLER_5_320
*1353 FILLER_5_323
*1354 FILLER_5_329
*1355 FILLER_5_33
*1356 FILLER_5_332
*1357 FILLER_5_335
*1358 FILLER_5_337
*1359 FILLER_5_340
*1360 FILLER_5_343
*1361 FILLER_5_346
*1362 FILLER_5_349
*1363 FILLER_5_355
*1364 FILLER_5_358
*1365 FILLER_5_36
*1366 FILLER_5_361
*1367 FILLER_5_364
*1368 FILLER_5_367
*1369 FILLER_5_370
*1370 FILLER_5_373
*1371 FILLER_5_376
*1372 FILLER_5_379
*1373 FILLER_5_382
*1374 FILLER_5_385
*1375 FILLER_5_388
*1376 FILLER_5_39
*1377 FILLER_5_391
*1378 FILLER_5_393
*1379 FILLER_5_396
*1380 FILLER_5_399
*1381 FILLER_5_402
*1382 FILLER_5_405
*1383 FILLER_5_408
*1384 FILLER_5_411
*1385 FILLER_5_414
*1386 FILLER_5_417
*1387 FILLER_5_42
*1388 FILLER_5_420
*1389 FILLER_5_423
*1390 FILLER_5_426
*1391 FILLER_5_429
*1392 FILLER_5_432
*1393 FILLER_5_435
*1394 FILLER_5_438
*1395 FILLER_5_441
*1396 FILLER_5_444
*1397 FILLER_5_447
*1398 FILLER_5_449
*1399 FILLER_5_45
*1400 FILLER_5_452
*1401 FILLER_5_455
*1402 FILLER_5_458
*1403 FILLER_5_461
*1404 FILLER_5_464
*1405 FILLER_5_48
*1406 FILLER_5_51
*1407 FILLER_5_54
*1408 FILLER_5_57
*1409 FILLER_5_6
*1410 FILLER_5_60
*1411 FILLER_5_63
*1412 FILLER_5_66
*1413 FILLER_5_69
*1414 FILLER_5_72
*1415 FILLER_5_75
*1416 FILLER_5_78
*1417 FILLER_5_81
*1418 FILLER_5_84
*1419 FILLER_5_87
*1420 FILLER_5_9
*1421 FILLER_5_90
*1422 FILLER_5_93
*1423 FILLER_5_96
*1424 FILLER_5_99
*1425 FILLER_6_100
*1426 FILLER_6_103
*1427 FILLER_6_106
*1428 FILLER_6_109
*1429 FILLER_6_112
*1430 FILLER_6_115
*1431 FILLER_6_118
*1432 FILLER_6_12
*1433 FILLER_6_121
*1434 FILLER_6_124
*1435 FILLER_6_127
*1436 FILLER_6_130
*1437 FILLER_6_133
*1438 FILLER_6_136
*1439 FILLER_6_139
*1440 FILLER_6_141
*1441 FILLER_6_144
*1442 FILLER_6_147
*1443 FILLER_6_15
*1444 FILLER_6_155
*1445 FILLER_6_158
*1446 FILLER_6_161
*1447 FILLER_6_164
*1448 FILLER_6_167
*1449 FILLER_6_170
*1450 FILLER_6_173
*1451 FILLER_6_176
*1452 FILLER_6_179
*1453 FILLER_6_18
*1454 FILLER_6_182
*1455 FILLER_6_185
*1456 FILLER_6_188
*1457 FILLER_6_193
*1458 FILLER_6_197
*1459 FILLER_6_200
*1460 FILLER_6_203
*1461 FILLER_6_206
*1462 FILLER_6_209
*1463 FILLER_6_21
*1464 FILLER_6_212
*1465 FILLER_6_215
*1466 FILLER_6_218
*1467 FILLER_6_221
*1468 FILLER_6_224
*1469 FILLER_6_227
*1470 FILLER_6_230
*1471 FILLER_6_233
*1472 FILLER_6_236
*1473 FILLER_6_239
*1474 FILLER_6_24
*1475 FILLER_6_242
*1476 FILLER_6_245
*1477 FILLER_6_248
*1478 FILLER_6_251
*1479 FILLER_6_253
*1480 FILLER_6_256
*1481 FILLER_6_259
*1482 FILLER_6_265
*1483 FILLER_6_268
*1484 FILLER_6_27
*1485 FILLER_6_271
*1486 FILLER_6_274
*1487 FILLER_6_277
*1488 FILLER_6_280
*1489 FILLER_6_283
*1490 FILLER_6_286
*1491 FILLER_6_289
*1492 FILLER_6_29
*1493 FILLER_6_292
*1494 FILLER_6_295
*1495 FILLER_6_298
*1496 FILLER_6_3
*1497 FILLER_6_301
*1498 FILLER_6_304
*1499 FILLER_6_307
*1500 FILLER_6_314
*1501 FILLER_6_32
*1502 FILLER_6_323
*1503 FILLER_6_326
*1504 FILLER_6_329
*1505 FILLER_6_332
*1506 FILLER_6_335
*1507 FILLER_6_338
*1508 FILLER_6_341
*1509 FILLER_6_344
*1510 FILLER_6_347
*1511 FILLER_6_35
*1512 FILLER_6_350
*1513 FILLER_6_353
*1514 FILLER_6_356
*1515 FILLER_6_362
*1516 FILLER_6_365
*1517 FILLER_6_368
*1518 FILLER_6_371
*1519 FILLER_6_374
*1520 FILLER_6_377
*1521 FILLER_6_38
*1522 FILLER_6_380
*1523 FILLER_6_383
*1524 FILLER_6_386
*1525 FILLER_6_389
*1526 FILLER_6_392
*1527 FILLER_6_395
*1528 FILLER_6_398
*1529 FILLER_6_401
*1530 FILLER_6_404
*1531 FILLER_6_407
*1532 FILLER_6_41
*1533 FILLER_6_410
*1534 FILLER_6_413
*1535 FILLER_6_416
*1536 FILLER_6_419
*1537 FILLER_6_421
*1538 FILLER_6_424
*1539 FILLER_6_427
*1540 FILLER_6_430
*1541 FILLER_6_433
*1542 FILLER_6_436
*1543 FILLER_6_439
*1544 FILLER_6_44
*1545 FILLER_6_442
*1546 FILLER_6_445
*1547 FILLER_6_448
*1548 FILLER_6_451
*1549 FILLER_6_454
*1550 FILLER_6_457
*1551 FILLER_6_460
*1552 FILLER_6_463
*1553 FILLER_6_47
*1554 FILLER_6_50
*1555 FILLER_6_53
*1556 FILLER_6_56
*1557 FILLER_6_59
*1558 FILLER_6_6
*1559 FILLER_6_62
*1560 FILLER_6_65
*1561 FILLER_6_68
*1562 FILLER_6_71
*1563 FILLER_6_74
*1564 FILLER_6_77
*1565 FILLER_6_80
*1566 FILLER_6_83
*1567 FILLER_6_85
*1568 FILLER_6_88
*1569 FILLER_6_9
*1570 FILLER_6_91
*1571 FILLER_6_94
*1572 FILLER_6_97
*1573 FILLER_7_102
*1574 FILLER_7_105
*1575 FILLER_7_108
*1576 FILLER_7_111
*1577 FILLER_7_113
*1578 FILLER_7_116
*1579 FILLER_7_119
*1580 FILLER_7_12
*1581 FILLER_7_122
*1582 FILLER_7_125
*1583 FILLER_7_128
*1584 FILLER_7_131
*1585 FILLER_7_134
*1586 FILLER_7_137
*1587 FILLER_7_140
*1588 FILLER_7_143
*1589 FILLER_7_146
*1590 FILLER_7_149
*1591 FILLER_7_15
*1592 FILLER_7_152
*1593 FILLER_7_155
*1594 FILLER_7_158
*1595 FILLER_7_161
*1596 FILLER_7_164
*1597 FILLER_7_167
*1598 FILLER_7_174
*1599 FILLER_7_177
*1600 FILLER_7_18
*1601 FILLER_7_180
*1602 FILLER_7_183
*1603 FILLER_7_186
*1604 FILLER_7_189
*1605 FILLER_7_192
*1606 FILLER_7_195
*1607 FILLER_7_201
*1608 FILLER_7_204
*1609 FILLER_7_21
*1610 FILLER_7_211
*1611 FILLER_7_214
*1612 FILLER_7_217
*1613 FILLER_7_220
*1614 FILLER_7_223
*1615 FILLER_7_225
*1616 FILLER_7_228
*1617 FILLER_7_231
*1618 FILLER_7_234
*1619 FILLER_7_24
*1620 FILLER_7_240
*1621 FILLER_7_243
*1622 FILLER_7_246
*1623 FILLER_7_249
*1624 FILLER_7_252
*1625 FILLER_7_255
*1626 FILLER_7_258
*1627 FILLER_7_261
*1628 FILLER_7_264
*1629 FILLER_7_267
*1630 FILLER_7_27
*1631 FILLER_7_270
*1632 FILLER_7_273
*1633 FILLER_7_276
*1634 FILLER_7_279
*1635 FILLER_7_281
*1636 FILLER_7_287
*1637 FILLER_7_290
*1638 FILLER_7_293
*1639 FILLER_7_297
*1640 FILLER_7_3
*1641 FILLER_7_30
*1642 FILLER_7_300
*1643 FILLER_7_303
*1644 FILLER_7_306
*1645 FILLER_7_309
*1646 FILLER_7_312
*1647 FILLER_7_315
*1648 FILLER_7_318
*1649 FILLER_7_321
*1650 FILLER_7_324
*1651 FILLER_7_327
*1652 FILLER_7_33
*1653 FILLER_7_330
*1654 FILLER_7_333
*1655 FILLER_7_337
*1656 FILLER_7_340
*1657 FILLER_7_343
*1658 FILLER_7_346
*1659 FILLER_7_349
*1660 FILLER_7_352
*1661 FILLER_7_355
*1662 FILLER_7_358
*1663 FILLER_7_36
*1664 FILLER_7_361
*1665 FILLER_7_364
*1666 FILLER_7_367
*1667 FILLER_7_372
*1668 FILLER_7_375
*1669 FILLER_7_378
*1670 FILLER_7_381
*1671 FILLER_7_384
*1672 FILLER_7_388
*1673 FILLER_7_39
*1674 FILLER_7_391