*SPEF "ieee 1481-1999"
*DESIGN "W_term_single"
*DATE "15:02:25 Tuesday May 06, 2025"
*VENDOR "The OpenROAD Project"
*PROGRAM "OpenROAD"
*VERSION "87af90f72f3f9be1fdfa1d886f0dd8d8b8f34694"
*DESIGN_FLOW "NAME_SCOPE LOCAL" "PIN_CAP NONE"
*DIVIDER /
*DELIMITER :
*BUS_DELIMITER []
*T_UNIT 1 NS
*C_UNIT 1 PF
*R_UNIT 1 OHM
*L_UNIT 1 HENRY

*NAME_MAP
*1 E1BEG[0]
*2 E1BEG[1]
*3 E1BEG[2]
*4 E1BEG[3]
*5 E2BEG[0]
*6 E2BEG[1]
*7 E2BEG[2]
*8 E2BEG[3]
*9 E2BEG[4]
*10 E2BEG[5]
*11 E2BEG[6]
*12 E2BEG[7]
*13 E2BEGb[0]
*14 E2BEGb[1]
*15 E2BEGb[2]
*16 E2BEGb[3]
*17 E2BEGb[4]
*18 E2BEGb[5]
*19 E2BEGb[6]
*20 E2BEGb[7]
*21 E6BEG[0]
*22 E6BEG[10]
*23 E6BEG[11]
*24 E6BEG[1]
*25 E6BEG[2]
*26 E6BEG[3]
*27 E6BEG[4]
*28 E6BEG[5]
*29 E6BEG[6]
*30 E6BEG[7]
*31 E6BEG[8]
*32 E6BEG[9]
*33 EE4BEG[0]
*34 EE4BEG[10]
*35 EE4BEG[11]
*36 EE4BEG[12]
*37 EE4BEG[13]
*38 EE4BEG[14]
*39 EE4BEG[15]
*40 EE4BEG[1]
*41 EE4BEG[2]
*42 EE4BEG[3]
*43 EE4BEG[4]
*44 EE4BEG[5]
*45 EE4BEG[6]
*46 EE4BEG[7]
*47 EE4BEG[8]
*48 EE4BEG[9]
*49 FrameData[0]
*50 FrameData[10]
*51 FrameData[11]
*52 FrameData[12]
*53 FrameData[13]
*54 FrameData[14]
*55 FrameData[15]
*56 FrameData[16]
*57 FrameData[17]
*58 FrameData[18]
*59 FrameData[19]
*60 FrameData[1]
*61 FrameData[20]
*62 FrameData[21]
*63 FrameData[22]
*64 FrameData[23]
*65 FrameData[24]
*66 FrameData[25]
*67 FrameData[26]
*68 FrameData[27]
*69 FrameData[28]
*70 FrameData[29]
*71 FrameData[2]
*72 FrameData[30]
*73 FrameData[31]
*74 FrameData[3]
*75 FrameData[4]
*76 FrameData[5]
*77 FrameData[6]
*78 FrameData[7]
*79 FrameData[8]
*80 FrameData[9]
*81 FrameData_O[0]
*82 FrameData_O[10]
*83 FrameData_O[11]
*84 FrameData_O[12]
*85 FrameData_O[13]
*86 FrameData_O[14]
*87 FrameData_O[15]
*88 FrameData_O[16]
*89 FrameData_O[17]
*90 FrameData_O[18]
*91 FrameData_O[19]
*92 FrameData_O[1]
*93 FrameData_O[20]
*94 FrameData_O[21]
*95 FrameData_O[22]
*96 FrameData_O[23]
*97 FrameData_O[24]
*98 FrameData_O[25]
*99 FrameData_O[26]
*100 FrameData_O[27]
*101 FrameData_O[28]
*102 FrameData_O[29]
*103 FrameData_O[2]
*104 FrameData_O[30]
*105 FrameData_O[31]
*106 FrameData_O[3]
*107 FrameData_O[4]
*108 FrameData_O[5]
*109 FrameData_O[6]
*110 FrameData_O[7]
*111 FrameData_O[8]
*112 FrameData_O[9]
*113 FrameStrobe[0]
*114 FrameStrobe[10]
*115 FrameStrobe[11]
*116 FrameStrobe[12]
*117 FrameStrobe[13]
*118 FrameStrobe[14]
*119 FrameStrobe[15]
*120 FrameStrobe[16]
*121 FrameStrobe[17]
*122 FrameStrobe[18]
*123 FrameStrobe[19]
*124 FrameStrobe[1]
*125 FrameStrobe[2]
*126 FrameStrobe[3]
*127 FrameStrobe[4]
*128 FrameStrobe[5]
*129 FrameStrobe[6]
*130 FrameStrobe[7]
*131 FrameStrobe[8]
*132 FrameStrobe[9]
*133 FrameStrobe_O[0]
*134 FrameStrobe_O[10]
*135 FrameStrobe_O[11]
*136 FrameStrobe_O[12]
*137 FrameStrobe_O[13]
*138 FrameStrobe_O[14]
*139 FrameStrobe_O[15]
*140 FrameStrobe_O[16]
*141 FrameStrobe_O[17]
*142 FrameStrobe_O[18]
*143 FrameStrobe_O[19]
*144 FrameStrobe_O[1]
*145 FrameStrobe_O[2]
*146 FrameStrobe_O[3]
*147 FrameStrobe_O[4]
*148 FrameStrobe_O[5]
*149 FrameStrobe_O[6]
*150 FrameStrobe_O[7]
*151 FrameStrobe_O[8]
*152 FrameStrobe_O[9]
*153 UserCLK
*154 UserCLKo
*157 W1END[0]
*158 W1END[1]
*159 W1END[2]
*160 W1END[3]
*161 W2END[0]
*162 W2END[1]
*163 W2END[2]
*164 W2END[3]
*165 W2END[4]
*166 W2END[5]
*167 W2END[6]
*168 W2END[7]
*169 W2MID[0]
*170 W2MID[1]
*171 W2MID[2]
*172 W2MID[3]
*173 W2MID[4]
*174 W2MID[5]
*175 W2MID[6]
*176 W2MID[7]
*177 W6END[0]
*178 W6END[10]
*179 W6END[11]
*180 W6END[1]
*181 W6END[2]
*182 W6END[3]
*183 W6END[4]
*184 W6END[5]
*185 W6END[6]
*186 W6END[7]
*187 W6END[8]
*188 W6END[9]
*189 WW4END[0]
*190 WW4END[10]
*191 WW4END[11]
*192 WW4END[12]
*193 WW4END[13]
*194 WW4END[14]
*195 WW4END[15]
*196 WW4END[1]
*197 WW4END[2]
*198 WW4END[3]
*199 WW4END[4]
*200 WW4END[5]
*201 WW4END[6]
*202 WW4END[7]
*203 WW4END[8]
*204 WW4END[9]
*205 net1
*206 net10
*207 net100
*208 net101
*209 net11
*210 net12
*211 net13
*212 net14
*213 net15
*214 net16
*215 net17
*216 net18
*217 net19
*218 net2
*219 net20
*220 net21
*221 net22
*222 net23
*223 net24
*224 net25
*225 net26
*226 net27
*227 net28
*228 net29
*229 net3
*230 net30
*231 net31
*232 net32
*233 net33
*234 net34
*235 net35
*236 net36
*237 net37
*238 net38
*239 net39
*240 net4
*241 net40
*242 net41
*243 net42
*244 net43
*245 net44
*246 net45
*247 net46
*248 net47
*249 net48
*250 net49
*251 net5
*252 net50
*253 net51
*254 net52
*255 net53
*256 net54
*257 net55
*258 net56
*259 net57
*260 net58
*261 net59
*262 net6
*263 net60
*264 net61
*265 net62
*266 net63
*267 net64
*268 net65
*269 net66
*270 net67
*271 net68
*272 net69
*273 net7
*274 net70
*275 net71
*276 net72
*277 net73
*278 net74
*279 net75
*280 net76
*281 net77
*282 net78
*283 net79
*284 net8
*285 net80
*286 net81
*287 net82
*288 net83
*289 net84
*290 net85
*291 net86
*292 net87
*293 net88
*294 net89
*295 net9
*296 net90
*297 net91
*298 net92
*299 net93
*300 net94
*301 net95
*302 net96
*303 net97
*304 net98
*305 net99
*306 ANTENNA_1
*307 ANTENNA_2
*308 ANTENNA_3
*309 ANTENNA_4
*310 ANTENNA_5
*311 ANTENNA_6
*312 ANTENNA_7
*313 ANTENNA_8
*314 ANTENNA_9
*315 FILLER_0_12
*316 FILLER_0_15
*317 FILLER_0_18
*318 FILLER_0_21
*319 FILLER_0_24
*320 FILLER_0_27
*321 FILLER_0_29
*322 FILLER_0_3
*323 FILLER_0_32
*324 FILLER_0_35
*325 FILLER_0_38
*326 FILLER_0_41
*327 FILLER_0_44
*328 FILLER_0_47
*329 FILLER_0_50
*330 FILLER_0_53
*331 FILLER_0_57
*332 FILLER_0_6
*333 FILLER_0_60
*334 FILLER_0_63
*335 FILLER_0_66
*336 FILLER_0_69
*337 FILLER_0_72
*338 FILLER_0_75
*339 FILLER_0_78
*340 FILLER_0_9
*341 FILLER_10_12
*342 FILLER_10_15
*343 FILLER_10_18
*344 FILLER_10_21
*345 FILLER_10_24
*346 FILLER_10_27
*347 FILLER_10_29
*348 FILLER_10_3
*349 FILLER_10_32
*350 FILLER_10_35
*351 FILLER_10_38
*352 FILLER_10_41
*353 FILLER_10_44
*354 FILLER_10_47
*355 FILLER_10_50
*356 FILLER_10_53
*357 FILLER_10_56
*358 FILLER_10_59
*359 FILLER_10_6
*360 FILLER_10_62
*361 FILLER_10_67
*362 FILLER_10_70
*363 FILLER_10_73
*364 FILLER_10_76
*365 FILLER_10_79
*366 FILLER_10_9
*367 FILLER_11_12
*368 FILLER_11_15
*369 FILLER_11_18
*370 FILLER_11_21
*371 FILLER_11_24
*372 FILLER_11_27
*373 FILLER_11_3
*374 FILLER_11_30
*375 FILLER_11_33
*376 FILLER_11_36
*377 FILLER_11_39
*378 FILLER_11_42
*379 FILLER_11_45
*380 FILLER_11_48
*381 FILLER_11_51
*382 FILLER_11_54
*383 FILLER_11_6
*384 FILLER_11_60
*385 FILLER_11_63
*386 FILLER_11_66
*387 FILLER_11_69
*388 FILLER_11_72
*389 FILLER_11_75
*390 FILLER_11_78
*391 FILLER_11_9
*392 FILLER_12_12
*393 FILLER_12_15
*394 FILLER_12_18
*395 FILLER_12_21
*396 FILLER_12_24
*397 FILLER_12_27
*398 FILLER_12_29
*399 FILLER_12_3
*400 FILLER_12_32
*401 FILLER_12_35
*402 FILLER_12_38
*403 FILLER_12_41
*404 FILLER_12_44
*405 FILLER_12_47
*406 FILLER_12_50
*407 FILLER_12_53
*408 FILLER_12_56
*409 FILLER_12_59
*410 FILLER_12_6
*411 FILLER_12_62
*412 FILLER_12_68
*413 FILLER_12_71
*414 FILLER_12_74
*415 FILLER_12_77
*416 FILLER_12_9
*417 FILLER_13_12
*418 FILLER_13_15
*419 FILLER_13_18
*420 FILLER_13_21
*421 FILLER_13_24
*422 FILLER_13_27
*423 FILLER_13_3
*424 FILLER_13_30
*425 FILLER_13_33
*426 FILLER_13_36
*427 FILLER_13_39
*428 FILLER_13_42
*429 FILLER_13_45
*430 FILLER_13_48
*431 FILLER_13_51
*432 FILLER_13_54
*433 FILLER_13_57
*434 FILLER_13_6
*435 FILLER_13_60
*436 FILLER_13_66
*437 FILLER_13_69
*438 FILLER_13_72
*439 FILLER_13_75
*440 FILLER_13_78
*441 FILLER_13_9
*442 FILLER_14_12
*443 FILLER_14_15
*444 FILLER_14_18
*445 FILLER_14_21
*446 FILLER_14_24
*447 FILLER_14_27
*448 FILLER_14_29
*449 FILLER_14_3
*450 FILLER_14_32
*451 FILLER_14_35
*452 FILLER_14_38
*453 FILLER_14_41
*454 FILLER_14_44
*455 FILLER_14_47
*456 FILLER_14_50
*457 FILLER_14_53
*458 FILLER_14_56
*459 FILLER_14_59
*460 FILLER_14_6
*461 FILLER_14_62
*462 FILLER_14_65
*463 FILLER_14_68
*464 FILLER_14_71
*465 FILLER_14_74
*466 FILLER_14_77
*467 FILLER_14_9
*468 FILLER_15_12
*469 FILLER_15_15
*470 FILLER_15_18
*471 FILLER_15_21
*472 FILLER_15_24
*473 FILLER_15_27
*474 FILLER_15_3
*475 FILLER_15_30
*476 FILLER_15_33
*477 FILLER_15_36
*478 FILLER_15_39
*479 FILLER_15_42
*480 FILLER_15_45
*481 FILLER_15_48
*482 FILLER_15_51
*483 FILLER_15_54
*484 FILLER_15_57
*485 FILLER_15_6
*486 FILLER_15_60
*487 FILLER_15_64
*488 FILLER_15_67
*489 FILLER_15_70
*490 FILLER_15_73
*491 FILLER_15_76
*492 FILLER_15_79
*493 FILLER_15_9
*494 FILLER_16_11
*495 FILLER_16_14
*496 FILLER_16_17
*497 FILLER_16_20
*498 FILLER_16_23
*499 FILLER_16_26
*500 FILLER_16_29
*501 FILLER_16_3
*502 FILLER_16_32
*503 FILLER_16_35
*504 FILLER_16_38
*505 FILLER_16_41
*506 FILLER_16_44
*507 FILLER_16_47
*508 FILLER_16_52
*509 FILLER_16_55
*510 FILLER_16_58
*511 FILLER_16_6
*512 FILLER_16_61
*513 FILLER_16_64
*514 FILLER_16_67
*515 FILLER_16_70
*516 FILLER_16_73
*517 FILLER_16_76
*518 FILLER_16_79
*519 FILLER_17_12
*520 FILLER_17_15
*521 FILLER_17_18
*522 FILLER_17_21
*523 FILLER_17_24
*524 FILLER_17_27
*525 FILLER_17_3
*526 FILLER_17_30
*527 FILLER_17_33
*528 FILLER_17_36
*529 FILLER_17_39
*530 FILLER_17_42
*531 FILLER_17_45
*532 FILLER_17_48
*533 FILLER_17_51
*534 FILLER_17_54
*535 FILLER_17_57
*536 FILLER_17_6
*537 FILLER_17_60
*538 FILLER_17_63
*539 FILLER_17_66
*540 FILLER_17_69
*541 FILLER_17_72
*542 FILLER_17_76
*543 FILLER_17_79
*544 FILLER_17_9
*545 FILLER_18_12
*546 FILLER_18_15
*547 FILLER_18_18
*548 FILLER_18_21
*549 FILLER_18_24
*550 FILLER_18_27
*551 FILLER_18_29
*552 FILLER_18_3
*553 FILLER_18_32
*554 FILLER_18_35
*555 FILLER_18_38
*556 FILLER_18_41
*557 FILLER_18_44
*558 FILLER_18_47
*559 FILLER_18_53
*560 FILLER_18_56
*561 FILLER_18_59
*562 FILLER_18_6
*563 FILLER_18_62
*564 FILLER_18_65
*565 FILLER_18_68
*566 FILLER_18_72
*567 FILLER_18_75
*568 FILLER_18_78
*569 FILLER_18_9
*570 FILLER_19_12
*571 FILLER_19_15
*572 FILLER_19_18
*573 FILLER_19_21
*574 FILLER_19_24
*575 FILLER_19_27
*576 FILLER_19_3
*577 FILLER_19_30
*578 FILLER_19_33
*579 FILLER_19_36
*580 FILLER_19_39
*581 FILLER_19_42
*582 FILLER_19_45
*583 FILLER_19_48
*584 FILLER_19_51
*585 FILLER_19_54
*586 FILLER_19_57
*587 FILLER_19_6
*588 FILLER_19_60
*589 FILLER_19_63
*590 FILLER_19_66
*591 FILLER_19_69
*592 FILLER_19_72
*593 FILLER_19_75
*594 FILLER_19_78
*595 FILLER_19_9
*596 FILLER_1_12
*597 FILLER_1_15
*598 FILLER_1_18
*599 FILLER_1_21
*600 FILLER_1_24
*601 FILLER_1_27
*602 FILLER_1_3
*603 FILLER_1_30
*604 FILLER_1_33
*605 FILLER_1_36
*606 FILLER_1_39
*607 FILLER_1_42
*608 FILLER_1_45
*609 FILLER_1_48
*610 FILLER_1_51
*611 FILLER_1_55
*612 FILLER_1_6
*613 FILLER_1_60
*614 FILLER_1_63
*615 FILLER_1_66
*616 FILLER_1_69
*617 FILLER_1_72
*618 FILLER_1_76
*619 FILLER_1_79
*620 FILLER_1_9
*621 FILLER_20_12
*622 FILLER_20_15
*623 FILLER_20_18
*624 FILLER_20_21
*625 FILLER_20_24
*626 FILLER_20_27
*627 FILLER_20_29
*628 FILLER_20_3
*629 FILLER_20_32
*630 FILLER_20_35
*631 FILLER_20_38
*632 FILLER_20_41
*633 FILLER_20_44
*634 FILLER_20_47
*635 FILLER_20_50
*636 FILLER_20_53
*637 FILLER_20_56
*638 FILLER_20_59
*639 FILLER_20_62
*640 FILLER_20_65
*641 FILLER_20_68
*642 FILLER_20_71
*643 FILLER_20_76
*644 FILLER_20_79
*645 FILLER_20_9
*646 FILLER_21_12
*647 FILLER_21_15
*648 FILLER_21_18
*649 FILLER_21_21
*650 FILLER_21_24
*651 FILLER_21_27
*652 FILLER_21_3
*653 FILLER_21_30
*654 FILLER_21_33
*655 FILLER_21_36
*656 FILLER_21_39
*657 FILLER_21_42
*658 FILLER_21_45
*659 FILLER_21_48
*660 FILLER_21_51
*661 FILLER_21_54
*662 FILLER_21_57
*663 FILLER_21_6
*664 FILLER_21_60
*665 FILLER_21_63
*666 FILLER_21_66
*667 FILLER_21_69
*668 FILLER_21_72
*669 FILLER_21_75
*670 FILLER_21_78
*671 FILLER_21_9
*672 FILLER_22_12
*673 FILLER_22_15
*674 FILLER_22_18
*675 FILLER_22_21
*676 FILLER_22_24
*677 FILLER_22_27
*678 FILLER_22_29
*679 FILLER_22_3
*680 FILLER_22_32
*681 FILLER_22_35
*682 FILLER_22_38
*683 FILLER_22_41
*684 FILLER_22_44
*685 FILLER_22_47
*686 FILLER_22_50
*687 FILLER_22_53
*688 FILLER_22_56
*689 FILLER_22_59
*690 FILLER_22_6
*691 FILLER_22_64
*692 FILLER_22_67
*693 FILLER_22_70
*694 FILLER_22_73
*695 FILLER_22_77
*696 FILLER_23_12
*697 FILLER_23_15
*698 FILLER_23_18
*699 FILLER_23_21
*700 FILLER_23_24
*701 FILLER_23_27
*702 FILLER_23_3
*703 FILLER_23_30
*704 FILLER_23_33
*705 FILLER_23_36
*706 FILLER_23_39
*707 FILLER_23_42
*708 FILLER_23_45
*709 FILLER_23_48
*710 FILLER_23_51
*711 FILLER_23_54
*712 FILLER_23_6
*713 FILLER_23_60
*714 FILLER_23_63
*715 FILLER_23_66
*716 FILLER_23_69
*717 FILLER_23_72
*718 FILLER_23_75
*719 FILLER_23_78
*720 FILLER_23_9
*721 FILLER_24_13
*722 FILLER_24_16
*723 FILLER_24_19
*724 FILLER_24_22
*725 FILLER_24_25
*726 FILLER_24_29
*727 FILLER_24_3
*728 FILLER_24_32
*729 FILLER_24_35
*730 FILLER_24_38
*731 FILLER_24_41
*732 FILLER_24_44
*733 FILLER_24_47
*734 FILLER_24_50
*735 FILLER_24_53
*736 FILLER_24_56
*737 FILLER_24_59
*738 FILLER_24_6
*739 FILLER_24_62
*740 FILLER_24_65
*741 FILLER_24_68
*742 FILLER_24_71
*743 FILLER_24_74
*744 FILLER_24_77
*745 FILLER_24_9
*746 FILLER_25_11
*747 FILLER_25_14
*748 FILLER_25_17
*749 FILLER_25_20
*750 FILLER_25_23
*751 FILLER_25_26
*752 FILLER_25_29
*753 FILLER_25_3
*754 FILLER_25_32
*755 FILLER_25_35
*756 FILLER_25_38
*757 FILLER_25_42
*758 FILLER_25_45
*759 FILLER_25_48
*760 FILLER_25_51
*761 FILLER_25_54
*762 FILLER_25_6
*763 FILLER_25_60
*764 FILLER_25_63
*765 FILLER_25_66
*766 FILLER_25_71
*767 FILLER_25_74
*768 FILLER_25_77
*769 FILLER_26_12
*770 FILLER_26_15
*771 FILLER_26_18
*772 FILLER_26_21
*773 FILLER_26_24
*774 FILLER_26_27
*775 FILLER_26_29
*776 FILLER_26_3
*777 FILLER_26_32
*778 FILLER_26_35
*779 FILLER_26_38
*780 FILLER_26_41
*781 FILLER_26_44
*782 FILLER_26_47
*783 FILLER_26_50
*784 FILLER_26_53
*785 FILLER_26_56
*786 FILLER_26_59
*787 FILLER_26_6
*788 FILLER_26_62
*789 FILLER_26_65
*790 FILLER_26_68
*791 FILLER_26_71
*792 FILLER_26_74
*793 FILLER_26_77
*794 FILLER_26_9
*795 FILLER_27_12
*796 FILLER_27_15
*797 FILLER_27_18
*798 FILLER_27_21
*799 FILLER_27_24
*800 FILLER_27_27
*801 FILLER_27_3
*802 FILLER_27_30
*803 FILLER_27_33
*804 FILLER_27_36
*805 FILLER_27_39
*806 FILLER_27_42
*807 FILLER_27_45
*808 FILLER_27_48
*809 FILLER_27_51
*810 FILLER_27_54
*811 FILLER_27_57
*812 FILLER_27_6
*813 FILLER_27_60
*814 FILLER_27_66
*815 FILLER_27_69
*816 FILLER_27_72
*817 FILLER_27_75
*818 FILLER_27_78
*819 FILLER_27_9
*820 FILLER_28_11
*821 FILLER_28_14
*822 FILLER_28_17
*823 FILLER_28_20
*824 FILLER_28_23
*825 FILLER_28_26
*826 FILLER_28_29
*827 FILLER_28_3
*828 FILLER_28_32
*829 FILLER_28_35
*830 FILLER_28_38
*831 FILLER_28_41
*832 FILLER_28_44
*833 FILLER_28_47
*834 FILLER_28_50
*835 FILLER_28_53
*836 FILLER_28_56
*837 FILLER_28_59
*838 FILLER_28_63
*839 FILLER_28_66
*840 FILLER_28_69
*841 FILLER_28_72
*842 FILLER_28_75
*843 FILLER_28_78
*844 FILLER_28_8
*845 FILLER_29_12
*846 FILLER_29_15
*847 FILLER_29_18
*848 FILLER_29_21
*849 FILLER_29_24
*850 FILLER_29_27
*851 FILLER_29_3
*852 FILLER_29_30
*853 FILLER_29_33
*854 FILLER_29_36
*855 FILLER_29_41
*856 FILLER_29_44
*857 FILLER_29_47
*858 FILLER_29_50
*859 FILLER_29_53
*860 FILLER_29_57
*861 FILLER_29_6
*862 FILLER_29_60
*863 FILLER_29_63
*864 FILLER_29_69
*865 FILLER_29_72
*866 FILLER_29_75
*867 FILLER_29_78
*868 FILLER_29_9
*869 FILLER_2_12
*870 FILLER_2_15
*871 FILLER_2_18
*872 FILLER_2_21
*873 FILLER_2_24
*874 FILLER_2_27
*875 FILLER_2_29
*876 FILLER_2_3
*877 FILLER_2_32
*878 FILLER_2_35
*879 FILLER_2_38
*880 FILLER_2_41
*881 FILLER_2_44
*882 FILLER_2_47
*883 FILLER_2_50
*884 FILLER_2_53
*885 FILLER_2_56
*886 FILLER_2_59
*887 FILLER_2_6
*888 FILLER_2_62
*889 FILLER_2_65
*890 FILLER_2_68
*891 FILLER_2_71
*892 FILLER_2_77
*893 FILLER_2_9
*894 FILLER_30_12
*895 FILLER_30_15
*896 FILLER_30_18
*897 FILLER_30_21
*898 FILLER_30_24
*899 FILLER_30_27
*900 FILLER_30_29
*901 FILLER_30_3
*902 FILLER_30_32
*903 FILLER_30_35
*904 FILLER_30_38
*905 FILLER_30_41
*906 FILLER_30_44
*907 FILLER_30_47
*908 FILLER_30_50
*909 FILLER_30_53
*910 FILLER_30_56
*911 FILLER_30_59
*912 FILLER_30_6
*913 FILLER_30_62
*914 FILLER_30_68
*915 FILLER_30_9
*916 FILLER_31_12
*917 FILLER_31_15
*918 FILLER_31_18
*919 FILLER_31_21
*920 FILLER_31_3
*921 FILLER_31_30
*922 FILLER_31_33
*923 FILLER_31_36
*924 FILLER_31_39
*925 FILLER_31_42
*926 FILLER_31_45
*927 FILLER_31_48
*928 FILLER_31_51
*929 FILLER_31_54
*930 FILLER_31_57
*931 FILLER_31_61
*932 FILLER_31_64
*933 FILLER_31_67
*934 FILLER_31_9
*935 FILLER_32_12
*936 FILLER_32_17
*937 FILLER_32_20
*938 FILLER_32_23
*939 FILLER_32_26
*940 FILLER_32_29
*941 FILLER_32_3
*942 FILLER_32_32
*943 FILLER_32_35
*944 FILLER_32_38
*945 FILLER_32_42
*946 FILLER_32_45
*947 FILLER_32_48
*948 FILLER_32_51
*949 FILLER_32_54
*950 FILLER_32_57
*951 FILLER_32_6
*952 FILLER_32_60
*953 FILLER_32_63
*954 FILLER_32_66
*955 FILLER_32_69
*956 FILLER_32_9
*957 FILLER_33_12
*958 FILLER_33_15
*959 FILLER_33_18
*960 FILLER_33_21
*961 FILLER_33_24
*962 FILLER_33_27
*963 FILLER_33_3
*964 FILLER_33_30
*965 FILLER_33_33
*966 FILLER_33_36
*967 FILLER_33_39
*968 FILLER_33_42
*969 FILLER_33_49
*970 FILLER_33_52
*971 FILLER_33_55
*972 FILLER_33_57
*973 FILLER_33_6
*974 FILLER_33_60
*975 FILLER_33_63
*976 FILLER_33_66
*977 FILLER_33_69
*978 FILLER_33_9
*979 FILLER_34_12
*980 FILLER_34_15
*981 FILLER_34_18
*982 FILLER_34_21
*983 FILLER_34_24
*984 FILLER_34_27
*985 FILLER_34_29
*986 FILLER_34_3
*987 FILLER_34_32
*988 FILLER_34_35
*989 FILLER_34_38
*990 FILLER_34_41
*991 FILLER_34_44
*992 FILLER_34_47
*993 FILLER_34_50
*994 FILLER_34_53
*995 FILLER_34_56
*996 FILLER_34_59
*997 FILLER_34_6
*998 FILLER_34_64
*999 FILLER_34_67
*1000 FILLER_34_70
*1001 FILLER_34_9
*1002 FILLER_35_11
*1003 FILLER_35_14
*1004 FILLER_35_17
*1005 FILLER_35_20
*1006 FILLER_35_23
*1007 FILLER_35_26
*1008 FILLER_35_29
*1009 FILLER_35_3
*1010 FILLER_35_32
*1011 FILLER_35_35
*1012 FILLER_35_38
*1013 FILLER_35_41
*1014 FILLER_35_44
*1015 FILLER_35_47
*1016 FILLER_35_50
*1017 FILLER_35_53
*1018 FILLER_35_57
*1019 FILLER_35_60
*1020 FILLER_35_63
*1021 FILLER_35_66
*1022 FILLER_35_69
*1023 FILLER_35_8
*1024 FILLER_36_12
*1025 FILLER_36_15
*1026 FILLER_36_18
*1027 FILLER_36_21
*1028 FILLER_36_24
*1029 FILLER_36_27
*1030 FILLER_36_29
*1031 FILLER_36_3
*1032 FILLER_36_32
*1033 FILLER_36_35
*1034 FILLER_36_40
*1035 FILLER_36_43
*1036 FILLER_36_46
*1037 FILLER_36_49
*1038 FILLER_36_52
*1039 FILLER_36_55
*1040 FILLER_36_58
*1041 FILLER_36_6
*1042 FILLER_36_66
*1043 FILLER_36_70
*1044 FILLER_36_9
*1045 FILLER_37_11
*1046 FILLER_37_14
*1047 FILLER_37_17
*1048 FILLER_37_20
*1049 FILLER_37_23
*1050 FILLER_37_26
*1051 FILLER_37_3
*1052 FILLER_37_30
*1053 FILLER_37_33
*1054 FILLER_37_36
*1055 FILLER_37_39
*1056 FILLER_37_42
*1057 FILLER_37_45
*1058 FILLER_37_48
*1059 FILLER_37_51
*1060 FILLER_37_54
*1061 FILLER_37_57
*1062 FILLER_37_6
*1063 FILLER_37_60
*1064 FILLER_37_63
*1065 FILLER_37_67
*1066 FILLER_37_71
*1067 FILLER_38_12
*1068 FILLER_38_15
*1069 FILLER_38_18
*1070 FILLER_38_21
*1071 FILLER_38_24
*1072 FILLER_38_27
*1073 FILLER_38_29
*1074 FILLER_38_3
*1075 FILLER_38_32
*1076 FILLER_38_35
*1077 FILLER_38_38
*1078 FILLER_38_41
*1079 FILLER_38_44
*1080 FILLER_38_47
*1081 FILLER_38_50
*1082 FILLER_38_53
*1083 FILLER_38_56
*1084 FILLER_38_59
*1085 FILLER_38_6
*1086 FILLER_38_62
*1087 FILLER_38_65
*1088 FILLER_38_68
*1089 FILLER_38_9
*1090 FILLER_39_10
*1091 FILLER_39_13
*1092 FILLER_39_16
*1093 FILLER_39_19
*1094 FILLER_39_22
*1095 FILLER_39_25
*1096 FILLER_39_28
*1097 FILLER_39_3
*1098 FILLER_39_31
*1099 FILLER_39_34
*1100 FILLER_39_37
*1101 FILLER_39_40
*1102 FILLER_39_43
*1103 FILLER_39_46
*1104 FILLER_39_49
*1105 FILLER_39_52
*1106 FILLER_39_55
*1107 FILLER_39_57
*1108 FILLER_39_6
*1109 FILLER_39_60
*1110 FILLER_39_63
*1111 FILLER_39_66
*1112 FILLER_39_69
*1113 FILLER_3_12
*1114 FILLER_3_15
*1115 FILLER_3_18
*1116 FILLER_3_21
*1117 FILLER_3_24
*1118 FILLER_3_27
*1119 FILLER_3_3
*1120 FILLER_3_30
*1121 FILLER_3_33
*1122 FILLER_3_36
*1123 FILLER_3_39
*1124 FILLER_3_42
*1125 FILLER_3_45
*1126 FILLER_3_48
*1127 FILLER_3_51
*1128 FILLER_3_54
*1129 FILLER_3_57
*1130 FILLER_3_6
*1131 FILLER_3_60
*1132 FILLER_3_63
*1133 FILLER_3_66
*1134 FILLER_3_70
*1135 FILLER_3_73
*1136 FILLER_3_76
*1137 FILLER_3_79
*1138 FILLER_3_9
*1139 FILLER_40_12
*1140 FILLER_40_15
*1141 FILLER_40_18
*1142 FILLER_40_21
*1143 FILLER_40_24
*1144 FILLER_40_29
*1145 FILLER_40_3
*1146 FILLER_40_32
*1147 FILLER_40_35
*1148 FILLER_40_38
*1149 FILLER_40_44
*1150 FILLER_40_47
*1151 FILLER_40_50
*1152 FILLER_40_53
*1153 FILLER_40_56
*1154 FILLER_40_59
*1155 FILLER_40_6
*1156 FILLER_40_62
*1157 FILLER_40_66
*1158 FILLER_40_9
*1159 FILLER_41_12
*1160 FILLER_41_15
*1161 FILLER_41_18
*1162 FILLER_41_21
*1163 FILLER_41_24
*1164 FILLER_41_27
*1165 FILLER_41_3
*1166 FILLER_41_30
*1167 FILLER_41_33
*1168 FILLER_41_36
*1169 FILLER_41_39
*1170 FILLER_41_42
*1171 FILLER_41_45
*1172 FILLER_41_48
*1173 FILLER_41_51
*1174 FILLER_41_54
*1175 FILLER_41_57
*1176 FILLER_41_6
*1177 FILLER_41_60
*1178 FILLER_41_63
*1179 FILLER_41_70
*1180 FILLER_41_9
*1181 FILLER_42_10
*1182 FILLER_42_13
*1183 FILLER_42_16
*1184 FILLER_42_19
*1185 FILLER_42_22
*1186 FILLER_42_25
*1187 FILLER_42_29
*1188 FILLER_42_3
*1189 FILLER_42_32
*1190 FILLER_42_35
*1191 FILLER_42_38
*1192 FILLER_42_41
*1193 FILLER_42_44
*1194 FILLER_42_47
*1195 FILLER_42_50
*1196 FILLER_42_53
*1197 FILLER_42_56
*1198 FILLER_42_59
*1199 FILLER_42_62
*1200 FILLER_42_65
*1201 FILLER_42_69
*1202 FILLER_43_12
*1203 FILLER_43_15
*1204 FILLER_43_18
*1205 FILLER_43_23
*1206 FILLER_43_26
*1207 FILLER_43_29
*1208 FILLER_43_3
*1209 FILLER_43_32
*1210 FILLER_43_35
*1211 FILLER_43_38
*1212 FILLER_43_41
*1213 FILLER_43_44
*1214 FILLER_43_47
*1215 FILLER_43_50
*1216 FILLER_43_53
*1217 FILLER_43_57
*1218 FILLER_43_6
*1219 FILLER_43_60
*1220 FILLER_43_63
*1221 FILLER_43_67
*1222 FILLER_43_70
*1223 FILLER_44_12
*1224 FILLER_44_15
*1225 FILLER_44_18
*1226 FILLER_44_21
*1227 FILLER_44_24
*1228 FILLER_44_27
*1229 FILLER_44_29
*1230 FILLER_44_3
*1231 FILLER_44_32
*1232 FILLER_44_35
*1233 FILLER_44_38
*1234 FILLER_44_41
*1235 FILLER_44_44
*1236 FILLER_44_47
*1237 FILLER_44_50
*1238 FILLER_44_53
*1239 FILLER_44_56
*1240 FILLER_44_59
*1241 FILLER_44_6
*1242 FILLER_44_62
*1243 FILLER_44_69
*1244 FILLER_44_9
*1245 FILLER_45_12
*1246 FILLER_45_15
*1247 FILLER_45_18
*1248 FILLER_45_21
*1249 FILLER_45_24
*1250 FILLER_45_27
*1251 FILLER_45_3
*1252 FILLER_45_30
*1253 FILLER_45_33
*1254 FILLER_45_36
*1255 FILLER_45_39
*1256 FILLER_45_42
*1257 FILLER_45_45
*1258 FILLER_45_48
*1259 FILLER_45_51
*1260 FILLER_45_54
*1261 FILLER_45_57
*1262 FILLER_45_6
*1263 FILLER_45_60
*1264 FILLER_45_63
*1265 FILLER_45_66
*1266 FILLER_45_70
*1267 FILLER_45_9
*1268 FILLER_46_12
*1269 FILLER_46_17
*1270 FILLER_46_20
*1271 FILLER_46_23
*1272 FILLER_46_26
*1273 FILLER_46_29
*1274 FILLER_46_3
*1275 FILLER_46_32
*1276 FILLER_46_35
*1277 FILLER_46_38
*1278 FILLER_46_41
*1279 FILLER_46_44
*1280 FILLER_46_47
*1281 FILLER_46_50
*1282 FILLER_46_53
*1283 FILLER_46_56
*1284 FILLER_46_59
*1285 FILLER_46_6
*1286 FILLER_46_62
*1287 FILLER_46_65
*1288 FILLER_46_68
*1289 FILLER_46_9
*1290 FILLER_47_12
*1291 FILLER_47_15
*1292 FILLER_47_18
*1293 FILLER_47_21
*1294 FILLER_47_24
*1295 FILLER_47_27
*1296 FILLER_47_3
*1297 FILLER_47_30
*1298 FILLER_47_33
*1299 FILLER_47_36
*1300 FILLER_47_39
*1301 FILLER_47_42
*1302 FILLER_47_45
*1303 FILLER_47_48
*1304 FILLER_47_51
*1305 FILLER_47_54
*1306 FILLER_47_57
*1307 FILLER_47_6
*1308 FILLER_47_60
*1309 FILLER_47_63
*1310 FILLER_47_66
*1311 FILLER_47_9
*1312 FILLER_48_12
*1313 FILLER_48_15
*1314 FILLER_48_18
*1315 FILLER_48_21
*1316 FILLER_48_24
*1317 FILLER_48_27
*1318 FILLER_48_29
*1319 FILLER_48_3
*1320 FILLER_48_32
*1321 FILLER_48_35
*1322 FILLER_48_38
*1323 FILLER_48_41
*1324 FILLER_48_44
*1325 FILLER_48_47
*1326 FILLER_48_50
*1327 FILLER_48_53
*1328 FILLER_48_56
*1329 FILLER_48_59
*1330 FILLER_48_6
*1331 FILLER_48_62
*1332 FILLER_48_65
*1333 FILLER_48_68
*1334 FILLER_48_9
*1335 FILLER_49_12
*1336 FILLER_49_18
*1337 FILLER_49_21
*1338 FILLER_49_24
*1339 FILLER_49_27
*1340 FILLER_49_3
*1341 FILLER_49_30
*1342 FILLER_49_33
*1343 FILLER_49_36
*1344 FILLER_49_39
*1345 FILLER_49_42
*1346 FILLER_49_45
*1347 FILLER_49_48
*1348 FILLER_49_51
*1349 FILLER_49_54
*1350 FILLER_49_57
*1351 FILLER_49_6
*1352 FILLER_49_60
*1353 FILLER_49_63
*1354 FILLER_49_68
*1355 FILLER_49_71
*1356 FILLER_49_9
*1357 FILLER_4_12
*1358 FILLER_4_15
*1359 FILLER_4_18
*1360 FILLER_4_21
*1361 FILLER_4_24
*1362 FILLER_4_27
*1363 FILLER_4_29
*1364 FILLER_4_3
*1365 FILLER_4_32
*1366 FILLER_4_35
*1367 FILLER_4_38
*1368 FILLER_4_41
*1369 FILLER_4_44
*1370 FILLER_4_47
*1371 FILLER_4_50
*1372 FILLER_4_56
*1373 FILLER_4_59
*1374 FILLER_4_6
*1375 FILLER_4_62
*1376 FILLER_4_65
*1377 FILLER_4_68
*1378 FILLER_4_71
*1379 FILLER_4_74
*1380 FILLER_4_77
*1381 FILLER_4_9
*1382 FILLER_50_12
*1383 FILLER_50_15
*1384 FILLER_50_18
*1385 FILLER_50_21
*1386 FILLER_50_24
*1387 FILLER_50_27
*1388 FILLER_50_29
*1389 FILLER_50_3
*1390 FILLER_50_32
*1391 FILLER_50_35
*1392 FILLER_50_38
*1393 FILLER_50_41
*1394 FILLER_50_44
*1395 FILLER_50_47
*1396 FILLER_50_50
*1397 FILLER_50_53
*1398 FILLER_50_56
*1399 FILLER_50_59
*1400 FILLER_50_6
*1401 FILLER_50_62
*1402 FILLER_50_65
*1403 FILLER_50_70
*1404 FILLER_50_9
*1405 FILLER_51_11
*1406 FILLER_51_14
*1407 FILLER_51_19
*1408 FILLER_51_22
*1409 FILLER_51_25
*1410 FILLER_51_28
*1411 FILLER_51_3
*1412 FILLER_51_31
*1413 FILLER_51_34
*1414 FILLER_51_37
*1415 FILLER_51_40
*1416 FILLER_51_43
*1417 FILLER_51_46
*1418 FILLER_51_49
*1419 FILLER_51_52
*1420 FILLER_51_55
*1421 FILLER_51_57
*1422 FILLER_51_60
*1423 FILLER_51_63
*1424 FILLER_51_68
*1425 FILLER_51_71
*1426 FILLER_51_8
*1427 FILLER_52_12
*1428 FILLER_52_15
*1429 FILLER_52_18
*1430 FILLER_52_21
*1431 FILLER_52_24
*1432 FILLER_52_27
*1433 FILLER_52_29
*1434 FILLER_52_3
*1435 FILLER_52_32
*1436 FILLER_52_35
*1437 FILLER_52_38
*1438 FILLER_52_41
*1439 FILLER_52_44
*1440 FILLER_52_47
*1441 FILLER_52_50
*1442 FILLER_52_53
*1443 FILLER_52_56
*1444 FILLER_52_59
*1445 FILLER_52_6
*1446 FILLER_52_62
*1447 FILLER_52_67
*1448 FILLER_52_70
*1449 FILLER_52_9
*1450 FILLER_53_13
*1451 FILLER_53_16
*1452 FILLER_53_20
*1453 FILLER_53_23
*1454 FILLER_53_26
*1455 FILLER_53_29
*1456 FILLER_53_3
*1457 FILLER_53_32
*1458 FILLER_53_35
*1459 FILLER_53_38
*1460 FILLER_53_41
*1461 FILLER_53_44
*1462 FILLER_53_47
*1463 FILLER_53_50
*1464 FILLER_53_53
*1465 FILLER_53_57
*1466 FILLER_53_6
*1467 FILLER_53_60
*1468 FILLER_53_63
*1469 FILLER_53_66
*1470 FILLER_53_69
*1471 FILLER_53_9
*1472 FILLER_54_12
*1473 FILLER_54_15
*1474 FILLER_54_21
*1475 FILLER_54_24
*1476 FILLER_54_27
*1477 FILLER_54_29
*1478 FILLER_54_3
*1479 FILLER_54_32
*1480 FILLER_54_35
*1481 FILLER_54_38
*1482 FILLER_54_41
*1483 FILLER_54_44
*1484 FILLER_54_47
*1485 FILLER_54_50
*1486 FILLER_54_53
*1487 FILLER_54_56
*1488 FILLER_54_59
*1489 FILLER_54_6
*1490 FILLER_54_62
*1491 FILLER_54_65
*1492 FILLER_54_69
*1493 FILLER_54_9
*1494 FILLER_55_12
*1495 FILLER_55_15
*1496 FILLER_55_19
*1497 FILLER_55_22
*1498 FILLER_55_25
*1499 FILLER_55_28
*1500 FILLER_55_3
*1501 FILLER_55_31
*1502 FILLER_55_34
*1503 FILLER_55_37
*1504 FILLER_55_40
*1505 FILLER_55_43
*1506 FILLER_55_46
*1507 FILLER_55_49
*1508 FILLER_55_52
*1509 FILLER_55_55
*1510 FILLER_55_57
*1511 FILLER_55_6
*1512 FILLER_55_60
*1513 FILLER_55_63
*1514 FILLER_55_66
*1515 FILLER_55_69
*1516 FILLER_55_9
*1517 FILLER_56_12
*1518 FILLER_56_17
*1519 FILLER_56_20
*1520 FILLER_56_23
*1521 FILLER_56_26
*1522 FILLER_56_29
*1523 FILLER_56_3
*1524 FILLER_56_32
*1525 FILLER_56_35
*1526 FILLER_56_38
*1527 FILLER_56_41
*1528 FILLER_56_44
*1529 FILLER_56_47
*1530 FILLER_56_50
*1531 FILLER_56_53
*1532 FILLER_56_56
*1533 FILLER_56_59
*1534 FILLER_56_6
*1535 FILLER_56_62
*1536 FILLER_56_65
*1537 FILLER_56_68
*1538 FILLER_56_9
*1539 FILLER_57_12
*1540 FILLER_57_15
*1541 FILLER_57_18
*1542 FILLER_57_21
*1543 FILLER_57_24
*1544 FILLER_57_27
*1545 FILLER_57_3
*1546 FILLER_57_30
*1547 FILLER_57_33
*1548 FILLER_57_36
*1549 FILLER_57_39
*1550 FILLER_57_42
*1551 FILLER_57_45
*1552 FILLER_57_48
*1553 FILLER_57_51
*1554 FILLER_57_54
*1555 FILLER_57_57
*1556 FILLER_57_60
*1557 FILLER_57_63
*1558 FILLER_57_66
*1559 FILLER_57_69
*1560 FILLER_57_9
*1561 FILLER_58_13
*1562 FILLER_58_16
*1563 FILLER_58_19
*1564 FILLER_58_22
*1565 FILLER_58_25
*1566 FILLER_58_29
*1567 FILLER_58_3
*1568 FILLER_58_32
*1569 FILLER_58_35
*1570 FILLER_58_38
*1571 FILLER_58_41
*1572 FILLER_58_44
*1573 FILLER_58_47
*1574 FILLER_58_50
*1575 FILLER_58_53
*1576 FILLER_58_56
*1577 FILLER_58_59
*1578 FILLER_58_6
*1579 FILLER_58_62
*1580 FILLER_58_65
*1581 FILLER_58_68
*1582 FILLER_58_71
*1583 FILLER_58_9
*1584 FILLER_59_12
*1585 FILLER_59_15
*1586 FILLER_59_18
*1587 FILLER_59_21
*1588 FILLER_59_24
*1589 FILLER_59_27
*1590 FILLER_59_3
*1591 FILLER_59_30
*1592 FILLER_59_33
*1593 FILLER_59_36
*1594 FILLER_59_39
*1595 FILLER_59_42
*1596 FILLER_59_45
*1597 FILLER_59_48
*1598 FILLER_59_51
*1599 FILLER_59_54
*1600 FILLER_59_57
*1601 FILLER_59_6
*1602 FILLER_59_60
*1603 FILLER_59_63
*1604 FILLER_59_66
*1605 FILLER_59_69
*1606 FILLER_59_9
*1607 FILLER_5_12
*1608 FILLER_5_15
*1609 FILLER_5_18
*1610 FILLER_5_21
*1611 FILLER_5_24
*1612 FILLER_5_27
*1613 FILLER_5_3
*1614 FILLER_5_30
*1615 FILLER_5_33
*1616 FILLER_5_36
*1617 FILLER_5_39
*1618 FILLER_5_42
*1619 FILLER_5_45
*1620 FILLER_5_48
*1621 FILLER_5_51
*1622 FILLER_5_54
*1623 FILLER_5_57
*1624 FILLER_5_6
*1625 FILLER_5_60
*1626 FILLER_5_63
*1627 FILLER_5_66
*1628 FILLER_5_69
*1629 FILLER_5_72
*1630 FILLER_5_75
*1631 FILLER_5_78
*1632 FILLER_5_9
*1633 FILLER_60_11
*1634 FILLER_60_14
*1635 FILLER_60_17
*1636 FILLER_60_20
*1637 FILLER_60_23
*1638 FILLER_60_26
*1639 FILLER_60_29
*1640 FILLER_60_3
*1641 FILLER_60_32
*1642 FILLER_60_35
*1643 FILLER_60_38
*1644 FILLER_60_41
*1645 FILLER_60_44
*1646 FILLER_60_47
*1647 FILLER_60_50
*1648 FILLER_60_53
*1649 FILLER_60_56
*1650 FILLER_60_59
*1651 FILLER_60_62
*1652 FILLER_60_65
*1653 FILLER_60_68
*1654 FILLER_60_8
*1655 FILLER_61_12
*1656 FILLER_61_15
*1657 FILLER_61_18
*1658 FILLER_61_21
*1659 FILLER_61_24
*1660 FILLER_61_27
*1661 FILLER_61_3
*1662 FILLER_61_30
*1663 FILLER_61_33
*1664 FILLER_61_36
*1665 FILLER_61_39
*1666 FILLER_61_42
*1667 FILLER_61_45
*1668 FILLER_61_48
*1669 FILLER_61_51
*1670 FILLER_61_54
*1671 FILLER_61_57
*1672 FILLER_61_6
*1673 FILLER_61_60
*1674 FILLER_61_63
*1675 FILLER_61_66
*1676 FILLER_61_69
*1677 FILLER_61_9
*1678 FILLER_62_13
*1679 FILLER_62_16
*1680 FILLER_62_19
*1681 FILLER_62_22