* NGSPICE file created from S_term_single2.ext - technology: sky130A

* Black-box entry subcircuit for sky130_fd_sc_hd__decap_3 abstract view
.subckt sky130_fd_sc_hd__decap_3 VGND VNB VPB VPWR
.ends

* Black-box entry subcircuit for sky130_fd_sc_hd__fill_2 abstract view
.subckt sky130_fd_sc_hd__fill_2 VGND VNB VPB VPWR
.ends

* Black-box entry subcircuit for sky130_fd_sc_hd__tapvpwrvgnd_1 abstract view
.subckt sky130_fd_sc_hd__tapvpwrvgnd_1 VGND VPWR
.ends

* Black-box entry subcircuit for sky130_fd_sc_hd__fill_1 abstract view
.subckt sky130_fd_sc_hd__fill_1 VGND VNB VPB VPWR
.ends

* Black-box entry subcircuit for sky130_fd_sc_hd__buf_1 abstract view
.subckt sky130_fd_sc_hd__buf_1 A VGND VNB VPB VPWR X
.ends

* Black-box entry subcircuit for sky130_fd_sc_hd__clkbuf_1 abstract view
.subckt sky130_fd_sc_hd__clkbuf_1 A VGND VNB VPB VPWR X
.ends

* Black-box entry subcircuit for sky130_fd_sc_hd__diode_2 abstract view
.subckt sky130_fd_sc_hd__diode_2 DIODE VGND VNB VPB VPWR
.ends

* Black-box entry subcircuit for sky130_fd_sc_hd__buf_2 abstract view
.subckt sky130_fd_sc_hd__buf_2 A VGND VNB VPB VPWR X
.ends

* Black-box entry subcircuit for sky130_fd_sc_hd__clkbuf_2 abstract view
.subckt sky130_fd_sc_hd__clkbuf_2 A VGND VNB VPB VPWR X
.ends

.subckt S_term_single2 FrameData[0] FrameData[10] FrameData[11] FrameData[12] FrameData[13]
+ FrameData[14] FrameData[15] FrameData[16] FrameData[17] FrameData[18] FrameData[19]
+ FrameData[1] FrameData[20] FrameData[21] FrameData[22] FrameData[23] FrameData[24]
+ FrameData[25] FrameData[26] FrameData[27] FrameData[28] FrameData[29] FrameData[2]
+ FrameData[30] FrameData[31] FrameData[3] FrameData[4] FrameData[5] FrameData[6]
+ FrameData[7] FrameData[8] FrameData[9] FrameData_O[0] FrameData_O[10] FrameData_O[11]
+ FrameData_O[12] FrameData_O[13] FrameData_O[14] FrameData_O[15] FrameData_O[16]
+ FrameData_O[17] FrameData_O[18] FrameData_O[19] FrameData_O[1] FrameData_O[20] FrameData_O[21]
+ FrameData_O[22] FrameData_O[23] FrameData_O[24] FrameData_O[25] FrameData_O[26]
+ FrameData_O[27] FrameData_O[28] FrameData_O[29] FrameData_O[2] FrameData_O[30] FrameData_O[31]
+ FrameData_O[3] FrameData_O[4] FrameData_O[5] FrameData_O[6] FrameData_O[7] FrameData_O[8]
+ FrameData_O[9] FrameStrobe[0] FrameStrobe[10] FrameStrobe[11] FrameStrobe[12] FrameStrobe[13]
+ FrameStrobe[14] FrameStrobe[15] FrameStrobe[16] FrameStrobe[17] FrameStrobe[18]
+ FrameStrobe[19] FrameStrobe[1] FrameStrobe[2] FrameStrobe[3] FrameStrobe[4] FrameStrobe[5]
+ FrameStrobe[6] FrameStrobe[7] FrameStrobe[8] FrameStrobe[9] FrameStrobe_O[0] FrameStrobe_O[10]
+ FrameStrobe_O[11] FrameStrobe_O[12] FrameStrobe_O[13] FrameStrobe_O[14] FrameStrobe_O[15]
+ FrameStrobe_O[16] FrameStrobe_O[17] FrameStrobe_O[18] FrameStrobe_O[19] FrameStrobe_O[1]
+ FrameStrobe_O[2] FrameStrobe_O[3] FrameStrobe_O[4] FrameStrobe_O[5] FrameStrobe_O[6]
+ FrameStrobe_O[7] FrameStrobe_O[8] FrameStrobe_O[9] N1BEG[0] N1BEG[1] N1BEG[2] N1BEG[3]
+ N2BEG[0] N2BEG[1] N2BEG[2] N2BEG[3] N2BEG[4] N2BEG[5] N2BEG[6] N2BEG[7] N2BEGb[0]
+ N2BEGb[1] N2BEGb[2] N2BEGb[3] N2BEGb[4] N2BEGb[5] N2BEGb[6] N2BEGb[7] N4BEG[0] N4BEG[10]
+ N4BEG[11] N4BEG[12] N4BEG[13] N4BEG[14] N4BEG[15] N4BEG[1] N4BEG[2] N4BEG[3] N4BEG[4]
+ N4BEG[5] N4BEG[6] N4BEG[7] N4BEG[8] N4BEG[9] NN4BEG[0] NN4BEG[10] NN4BEG[11] NN4BEG[12]
+ NN4BEG[13] NN4BEG[14] NN4BEG[15] NN4BEG[1] NN4BEG[2] NN4BEG[3] NN4BEG[4] NN4BEG[5]
+ NN4BEG[6] NN4BEG[7] NN4BEG[8] NN4BEG[9] S1END[0] S1END[1] S1END[2] S1END[3] S2END[0]
+ S2END[1] S2END[2] S2END[3] S2END[4] S2END[5] S2END[6] S2END[7] S2MID[0] S2MID[1]
+ S2MID[2] S2MID[3] S2MID[4] S2MID[5] S2MID[6] S2MID[7] S4END[0] S4END[10] S4END[11]
+ S4END[12] S4END[13] S4END[14] S4END[15] S4END[1] S4END[2] S4END[3] S4END[4] S4END[5]
+ S4END[6] S4END[7] S4END[8] S4END[9] SS4END[0] SS4END[10] SS4END[11] SS4END[12] SS4END[13]
+ SS4END[14] SS4END[15] SS4END[1] SS4END[2] SS4END[3] SS4END[4] SS4END[5] SS4END[6]
+ SS4END[7] SS4END[8] SS4END[9] UserCLK UserCLKo VGND VPWR
XFILLER_10_328 VGND VGND VPWR VPWR sky130_fd_sc_hd__decap_3
XFILLER_10_306 VGND VGND VPWR VPWR sky130_fd_sc_hd__fill_2
XTAP_TAPCELL_ROW_9_104 VGND VPWR sky130_fd_sc_hd__tapvpwrvgnd_1
XFILLER_9_126 VGND VGND VPWR VPWR sky130_fd_sc_hd__decap_3
XFILLER_3_12 VGND VGND VPWR VPWR sky130_fd_sc_hd__decap_3
XFILLER_3_45 VGND VGND VPWR VPWR sky130_fd_sc_hd__decap_3
XFILLER_5_332 VGND VGND VPWR VPWR sky130_fd_sc_hd__decap_3
XFILLER_5_343 VGND VGND VPWR VPWR sky130_fd_sc_hd__decap_3
XFILLER_5_376 VGND VGND VPWR VPWR sky130_fd_sc_hd__decap_3
XFILLER_3_78 VGND VGND VPWR VPWR sky130_fd_sc_hd__decap_3
XFILLER_8_192 VGND VGND VPWR VPWR sky130_fd_sc_hd__decap_3
XFILLER_10_158 VGND VGND VPWR VPWR sky130_fd_sc_hd__fill_1
XFILLER_10_125 VGND VGND VPWR VPWR sky130_fd_sc_hd__decap_3
XFILLER_6_118 VGND VGND VPWR VPWR sky130_fd_sc_hd__decap_3
XPHY_EDGE_ROW_0_Left_12 VGND VGND VPWR VPWR sky130_fd_sc_hd__decap_3
XFILLER_2_324 VGND VGND VPWR VPWR sky130_fd_sc_hd__decap_3
XFILLER_2_357 VGND VGND VPWR VPWR sky130_fd_sc_hd__decap_3
XFILLER_2_368 VGND VGND VPWR VPWR sky130_fd_sc_hd__decap_3
XTAP_TAPCELL_ROW_8_99 VGND VPWR sky130_fd_sc_hd__tapvpwrvgnd_1
XTAP_TAPCELL_ROW_11_131 VGND VPWR sky130_fd_sc_hd__tapvpwrvgnd_1
XTAP_TAPCELL_ROW_11_120 VGND VPWR sky130_fd_sc_hd__tapvpwrvgnd_1
XFILLER_5_140 VGND VGND VPWR VPWR sky130_fd_sc_hd__decap_3
XFILLER_5_184 VGND VGND VPWR VPWR sky130_fd_sc_hd__decap_3
XFILLER_11_445 VGND VGND VPWR VPWR sky130_fd_sc_hd__decap_3
X_062_ S2MID[1] VGND VGND VPWR VPWR net63 sky130_fd_sc_hd__buf_1
XFILLER_7_405 VGND VGND VPWR VPWR sky130_fd_sc_hd__decap_3
XFILLER_7_438 VGND VGND VPWR VPWR sky130_fd_sc_hd__decap_3
XFILLER_7_449 VGND VGND VPWR VPWR sky130_fd_sc_hd__decap_3
XFILLER_2_121 VGND VGND VPWR VPWR sky130_fd_sc_hd__decap_3
XFILLER_2_176 VGND VGND VPWR VPWR sky130_fd_sc_hd__decap_3
XFILLER_0_24 VGND VGND VPWR VPWR sky130_fd_sc_hd__decap_3
XFILLER_0_35 VGND VGND VPWR VPWR sky130_fd_sc_hd__decap_3
XFILLER_0_57 VGND VGND VPWR VPWR sky130_fd_sc_hd__decap_3
XFILLER_9_99 VGND VGND VPWR VPWR sky130_fd_sc_hd__decap_3
XFILLER_9_66 VGND VGND VPWR VPWR sky130_fd_sc_hd__decap_3
XFILLER_9_55 VGND VGND VPWR VPWR sky130_fd_sc_hd__fill_1
XFILLER_9_22 VGND VGND VPWR VPWR sky130_fd_sc_hd__decap_3
XFILLER_6_460 VGND VGND VPWR VPWR sky130_fd_sc_hd__decap_3
XFILLER_11_253 VGND VGND VPWR VPWR sky130_fd_sc_hd__decap_3
XFILLER_11_231 VGND VGND VPWR VPWR sky130_fd_sc_hd__decap_3
XTAP_TAPCELL_ROW_5_78 VGND VPWR sky130_fd_sc_hd__tapvpwrvgnd_1
X_045_ FrameStrobe[13] VGND VGND VPWR VPWR net37 sky130_fd_sc_hd__clkbuf_1
XFILLER_3_441 VGND VGND VPWR VPWR sky130_fd_sc_hd__decap_3
XFILLER_3_452 VGND VGND VPWR VPWR sky130_fd_sc_hd__decap_3
XFILLER_7_246 VGND VGND VPWR VPWR sky130_fd_sc_hd__decap_3
XFILLER_7_279 VGND VGND VPWR VPWR sky130_fd_sc_hd__fill_1
XFILLER_4_227 VGND VGND VPWR VPWR sky130_fd_sc_hd__decap_3
XFILLER_0_433 VGND VGND VPWR VPWR sky130_fd_sc_hd__decap_3
XFILLER_0_411 VGND VGND VPWR VPWR sky130_fd_sc_hd__decap_3
XFILLER_6_12 VGND VGND VPWR VPWR sky130_fd_sc_hd__decap_3
XANTENNA_5 FrameData[15] VGND VGND VPWR VPWR sky130_fd_sc_hd__diode_2
XFILLER_3_271 VGND VGND VPWR VPWR sky130_fd_sc_hd__decap_3
XFILLER_6_56 VGND VGND VPWR VPWR sky130_fd_sc_hd__decap_3
X_028_ FrameData[28] VGND VGND VPWR VPWR net21 sky130_fd_sc_hd__buf_1
XFILLER_9_319 VGND VGND VPWR VPWR sky130_fd_sc_hd__decap_3
Xoutput64 net64 VGND VGND VPWR VPWR N2BEG[7] sky130_fd_sc_hd__buf_2
Xoutput75 net75 VGND VGND VPWR VPWR N4BEG[11] sky130_fd_sc_hd__buf_2
Xoutput53 net53 VGND VGND VPWR VPWR N1BEG[0] sky130_fd_sc_hd__buf_2
Xoutput20 net20 VGND VGND VPWR VPWR FrameData_O[27] sky130_fd_sc_hd__buf_2
Xoutput31 net31 VGND VGND VPWR VPWR FrameData_O[8] sky130_fd_sc_hd__buf_2
Xoutput7 net7 VGND VGND VPWR VPWR FrameData_O[15] sky130_fd_sc_hd__buf_2
Xoutput42 net42 VGND VGND VPWR VPWR FrameStrobe_O[18] sky130_fd_sc_hd__buf_2
Xoutput86 net86 VGND VGND VPWR VPWR N4BEG[7] sky130_fd_sc_hd__buf_2
Xoutput97 net97 VGND VGND VPWR VPWR NN4BEG[2] sky130_fd_sc_hd__buf_2
XFILLER_0_296 VGND VGND VPWR VPWR sky130_fd_sc_hd__decap_3
XFILLER_0_274 VGND VGND VPWR VPWR sky130_fd_sc_hd__decap_3
XFILLER_8_330 VGND VGND VPWR VPWR sky130_fd_sc_hd__decap_3
XFILLER_8_363 VGND VGND VPWR VPWR sky130_fd_sc_hd__fill_1
XFILLER_8_374 VGND VGND VPWR VPWR sky130_fd_sc_hd__decap_3
XTAP_TAPCELL_ROW_9_105 VGND VPWR sky130_fd_sc_hd__tapvpwrvgnd_1
XFILLER_9_116 VGND VGND VPWR VPWR sky130_fd_sc_hd__decap_3
XFILLER_9_105 VGND VGND VPWR VPWR sky130_fd_sc_hd__decap_3
XFILLER_9_149 VGND VGND VPWR VPWR sky130_fd_sc_hd__decap_3
XFILLER_9_138 VGND VGND VPWR VPWR sky130_fd_sc_hd__decap_3
XFILLER_5_311 VGND VGND VPWR VPWR sky130_fd_sc_hd__decap_3
XFILLER_5_355 VGND VGND VPWR VPWR sky130_fd_sc_hd__decap_3
XFILLER_3_24 VGND VGND VPWR VPWR sky130_fd_sc_hd__decap_3
XFILLER_3_57 VGND VGND VPWR VPWR sky130_fd_sc_hd__decap_3
XFILLER_5_388 VGND VGND VPWR VPWR sky130_fd_sc_hd__decap_3
XFILLER_5_399 VGND VGND VPWR VPWR sky130_fd_sc_hd__decap_3
XFILLER_8_171 VGND VGND VPWR VPWR sky130_fd_sc_hd__decap_3
XFILLER_10_137 VGND VGND VPWR VPWR sky130_fd_sc_hd__decap_3
XFILLER_2_336 VGND VGND VPWR VPWR sky130_fd_sc_hd__decap_3
XTAP_TAPCELL_ROW_11_121 VGND VPWR sky130_fd_sc_hd__tapvpwrvgnd_1
XTAP_TAPCELL_ROW_11_132 VGND VPWR sky130_fd_sc_hd__tapvpwrvgnd_1
XFILLER_5_152 VGND VGND VPWR VPWR sky130_fd_sc_hd__decap_3
XFILLER_5_196 VGND VGND VPWR VPWR sky130_fd_sc_hd__decap_3
XFILLER_1_391 VGND VGND VPWR VPWR sky130_fd_sc_hd__fill_1
XFILLER_11_402 VGND VGND VPWR VPWR sky130_fd_sc_hd__decap_3
XFILLER_2_100 VGND VGND VPWR VPWR sky130_fd_sc_hd__decap_3
X_061_ S2MID[2] VGND VGND VPWR VPWR net62 sky130_fd_sc_hd__buf_1
XFILLER_7_417 VGND VGND VPWR VPWR sky130_fd_sc_hd__decap_3
XFILLER_2_133 VGND VGND VPWR VPWR sky130_fd_sc_hd__decap_3
XFILLER_2_144 VGND VGND VPWR VPWR sky130_fd_sc_hd__decap_3
XFILLER_2_155 VGND VGND VPWR VPWR sky130_fd_sc_hd__decap_3
XFILLER_0_47 VGND VGND VPWR VPWR sky130_fd_sc_hd__decap_3
XFILLER_0_69 VGND VGND VPWR VPWR sky130_fd_sc_hd__decap_3
XFILLER_9_78 VGND VGND VPWR VPWR sky130_fd_sc_hd__decap_3
XFILLER_9_34 VGND VGND VPWR VPWR sky130_fd_sc_hd__decap_3
XFILLER_11_287 VGND VGND VPWR VPWR sky130_fd_sc_hd__decap_3
XFILLER_11_265 VGND VGND VPWR VPWR sky130_fd_sc_hd__decap_3
XFILLER_11_243 VGND VGND VPWR VPWR sky130_fd_sc_hd__decap_3
XFILLER_11_210 VGND VGND VPWR VPWR sky130_fd_sc_hd__decap_3
XTAP_TAPCELL_ROW_5_79 VGND VPWR sky130_fd_sc_hd__tapvpwrvgnd_1
XFILLER_7_214 VGND VGND VPWR VPWR sky130_fd_sc_hd__decap_3
XFILLER_7_225 VGND VGND VPWR VPWR sky130_fd_sc_hd__decap_3
X_044_ FrameStrobe[12] VGND VGND VPWR VPWR net36 sky130_fd_sc_hd__buf_1
XFILLER_3_420 VGND VGND VPWR VPWR sky130_fd_sc_hd__decap_3
XFILLER_3_464 VGND VGND VPWR VPWR sky130_fd_sc_hd__fill_1
XFILLER_7_258 VGND VGND VPWR VPWR sky130_fd_sc_hd__decap_3
XFILLER_6_280 VGND VGND VPWR VPWR sky130_fd_sc_hd__decap_3
XFILLER_1_90 VGND VGND VPWR VPWR sky130_fd_sc_hd__decap_3
XFILLER_4_206 VGND VGND VPWR VPWR sky130_fd_sc_hd__decap_3
XFILLER_4_239 VGND VGND VPWR VPWR sky130_fd_sc_hd__decap_3
XFILLER_0_445 VGND VGND VPWR VPWR sky130_fd_sc_hd__decap_3
XFILLER_6_24 VGND VGND VPWR VPWR sky130_fd_sc_hd__decap_3
XFILLER_6_35 VGND VGND VPWR VPWR sky130_fd_sc_hd__decap_3
XANTENNA_6 FrameData[16] VGND VGND VPWR VPWR sky130_fd_sc_hd__diode_2
XFILLER_6_68 VGND VGND VPWR VPWR sky130_fd_sc_hd__decap_3
X_027_ FrameData[27] VGND VGND VPWR VPWR net20 sky130_fd_sc_hd__buf_1
XPHY_EDGE_ROW_6_Right_6 VGND VGND VPWR VPWR sky130_fd_sc_hd__decap_3
Xoutput98 net98 VGND VGND VPWR VPWR NN4BEG[3] sky130_fd_sc_hd__buf_2
Xoutput76 net76 VGND VGND VPWR VPWR N4BEG[12] sky130_fd_sc_hd__buf_2
Xoutput87 net87 VGND VGND VPWR VPWR N4BEG[8] sky130_fd_sc_hd__buf_2
Xoutput65 net65 VGND VGND VPWR VPWR N2BEGb[0] sky130_fd_sc_hd__buf_2
XFILLER_0_253 VGND VGND VPWR VPWR sky130_fd_sc_hd__decap_3
XFILLER_0_231 VGND VGND VPWR VPWR sky130_fd_sc_hd__decap_3
Xoutput32 net32 VGND VGND VPWR VPWR FrameData_O[9] sky130_fd_sc_hd__buf_2
Xoutput10 net10 VGND VGND VPWR VPWR FrameData_O[18] sky130_fd_sc_hd__buf_2
Xoutput8 net8 VGND VGND VPWR VPWR FrameData_O[16] sky130_fd_sc_hd__buf_2
Xoutput43 net43 VGND VGND VPWR VPWR FrameStrobe_O[19] sky130_fd_sc_hd__buf_2
Xoutput21 net21 VGND VGND VPWR VPWR FrameData_O[28] sky130_fd_sc_hd__buf_2
Xoutput54 net54 VGND VGND VPWR VPWR N1BEG[1] sky130_fd_sc_hd__buf_2
XFILLER_8_342 VGND VGND VPWR VPWR sky130_fd_sc_hd__decap_3
XFILLER_8_386 VGND VGND VPWR VPWR sky130_fd_sc_hd__decap_3
XFILLER_10_319 VGND VGND VPWR VPWR sky130_fd_sc_hd__decap_3
XTAP_TAPCELL_ROW_9_106 VGND VPWR sky130_fd_sc_hd__tapvpwrvgnd_1
XFILLER_7_9 VGND VGND VPWR VPWR sky130_fd_sc_hd__decap_3
XFILLER_5_323 VGND VGND VPWR VPWR sky130_fd_sc_hd__decap_3
XFILLER_5_367 VGND VGND VPWR VPWR sky130_fd_sc_hd__decap_3
XFILLER_3_36 VGND VGND VPWR VPWR sky130_fd_sc_hd__decap_3
XFILLER_3_69 VGND VGND VPWR VPWR sky130_fd_sc_hd__decap_3
XFILLER_8_150 VGND VGND VPWR VPWR sky130_fd_sc_hd__decap_3
XFILLER_8_183 VGND VGND VPWR VPWR sky130_fd_sc_hd__decap_3
XFILLER_10_149 VGND VGND VPWR VPWR sky130_fd_sc_hd__decap_3
XFILLER_2_304 VGND VGND VPWR VPWR sky130_fd_sc_hd__decap_3
XFILLER_6_109 VGND VGND VPWR VPWR sky130_fd_sc_hd__decap_3
XFILLER_2_315 VGND VGND VPWR VPWR sky130_fd_sc_hd__decap_3
XFILLER_2_348 VGND VGND VPWR VPWR sky130_fd_sc_hd__decap_3
XFILLER_5_6 VGND VGND VPWR VPWR sky130_fd_sc_hd__decap_3
XTAP_TAPCELL_ROW_11_133 VGND VPWR sky130_fd_sc_hd__tapvpwrvgnd_1
XTAP_TAPCELL_ROW_11_122 VGND VPWR sky130_fd_sc_hd__tapvpwrvgnd_1
XFILLER_5_131 VGND VGND VPWR VPWR sky130_fd_sc_hd__decap_3
XFILLER_5_164 VGND VGND VPWR VPWR sky130_fd_sc_hd__decap_3
XFILLER_5_175 VGND VGND VPWR VPWR sky130_fd_sc_hd__decap_3
XFILLER_1_370 VGND VGND VPWR VPWR sky130_fd_sc_hd__decap_3
XFILLER_7_429 VGND VGND VPWR VPWR sky130_fd_sc_hd__decap_3
XFILLER_2_112 VGND VGND VPWR VPWR sky130_fd_sc_hd__decap_3
XFILLER_3_3 VGND VGND VPWR VPWR sky130_fd_sc_hd__decap_3
X_060_ S2MID[3] VGND VGND VPWR VPWR net61 sky130_fd_sc_hd__buf_1
XFILLER_0_15 VGND VGND VPWR VPWR sky130_fd_sc_hd__decap_3
XFILLER_2_167 VGND VGND VPWR VPWR sky130_fd_sc_hd__decap_3
XFILLER_2_189 VGND VGND VPWR VPWR sky130_fd_sc_hd__decap_3
XFILLER_9_13 VGND VGND VPWR VPWR sky130_fd_sc_hd__decap_3
XFILLER_9_57 VGND VGND VPWR VPWR sky130_fd_sc_hd__decap_3
XFILLER_9_46 VGND VGND VPWR VPWR sky130_fd_sc_hd__decap_3
XFILLER_6_451 VGND VGND VPWR VPWR sky130_fd_sc_hd__decap_3
XFILLER_11_299 VGND VGND VPWR VPWR sky130_fd_sc_hd__decap_3
XFILLER_11_277 VGND VGND VPWR VPWR sky130_fd_sc_hd__decap_3
XFILLER_11_222 VGND VGND VPWR VPWR sky130_fd_sc_hd__fill_2
X_043_ FrameStrobe[11] VGND VGND VPWR VPWR net35 sky130_fd_sc_hd__clkbuf_1
XFILLER_7_204 VGND VGND VPWR VPWR sky130_fd_sc_hd__fill_2
XFILLER_3_432 VGND VGND VPWR VPWR sky130_fd_sc_hd__decap_3
XFILLER_6_292 VGND VGND VPWR VPWR sky130_fd_sc_hd__decap_3
XFILLER_0_424 VGND VGND VPWR VPWR sky130_fd_sc_hd__decap_3
XFILLER_0_402 VGND VGND VPWR VPWR sky130_fd_sc_hd__decap_3
XFILLER_4_218 VGND VGND VPWR VPWR sky130_fd_sc_hd__decap_3
X_026_ FrameData[26] VGND VGND VPWR VPWR net19 sky130_fd_sc_hd__clkbuf_1
XFILLER_6_47 VGND VGND VPWR VPWR sky130_fd_sc_hd__decap_3
XANTENNA_7 FrameData[17] VGND VGND VPWR VPWR sky130_fd_sc_hd__diode_2
XFILLER_3_262 VGND VGND VPWR VPWR sky130_fd_sc_hd__decap_3
XFILLER_3_295 VGND VGND VPWR VPWR sky130_fd_sc_hd__decap_3
XTAP_TAPCELL_ROW_2_48 VGND VPWR sky130_fd_sc_hd__tapvpwrvgnd_1
Xoutput44 net44 VGND VGND VPWR VPWR FrameStrobe_O[1] sky130_fd_sc_hd__buf_2
Xoutput33 net33 VGND VGND VPWR VPWR FrameStrobe_O[0] sky130_fd_sc_hd__buf_2
Xoutput99 net99 VGND VGND VPWR VPWR NN4BEG[4] sky130_fd_sc_hd__buf_2
Xoutput77 net77 VGND VGND VPWR VPWR N4BEG[13] sky130_fd_sc_hd__buf_2
Xoutput88 net88 VGND VGND VPWR VPWR N4BEG[9] sky130_fd_sc_hd__buf_2
Xoutput66 net66 VGND VGND VPWR VPWR N2BEGb[1] sky130_fd_sc_hd__buf_2
Xoutput55 net55 VGND VGND VPWR VPWR N1BEG[2] sky130_fd_sc_hd__buf_2
Xoutput22 net22 VGND VGND VPWR VPWR FrameData_O[29] sky130_fd_sc_hd__buf_2
XFILLER_0_287 VGND VGND VPWR VPWR sky130_fd_sc_hd__decap_3
XFILLER_0_265 VGND VGND VPWR VPWR sky130_fd_sc_hd__decap_3
XFILLER_0_243 VGND VGND VPWR VPWR sky130_fd_sc_hd__decap_3
XFILLER_0_221 VGND VGND VPWR VPWR sky130_fd_sc_hd__decap_3
Xoutput9 net9 VGND VGND VPWR VPWR FrameData_O[17] sky130_fd_sc_hd__buf_2
Xoutput11 net11 VGND VGND VPWR VPWR FrameData_O[19] sky130_fd_sc_hd__buf_2
XFILLER_8_321 VGND VGND VPWR VPWR sky130_fd_sc_hd__decap_3
XFILLER_8_354 VGND VGND VPWR VPWR sky130_fd_sc_hd__decap_3
X_009_ FrameData[9] VGND VGND VPWR VPWR net32 sky130_fd_sc_hd__buf_1
XFILLER_8_365 VGND VGND VPWR VPWR sky130_fd_sc_hd__decap_3
XFILLER_10_309 VGND VGND VPWR VPWR sky130_fd_sc_hd__decap_3
XFILLER_7_90 VGND VGND VPWR VPWR sky130_fd_sc_hd__decap_3
XTAP_TAPCELL_ROW_9_107 VGND VPWR sky130_fd_sc_hd__tapvpwrvgnd_1
XFILLER_9_129 VGND VGND VPWR VPWR sky130_fd_sc_hd__decap_3
XFILLER_5_302 VGND VGND VPWR VPWR sky130_fd_sc_hd__decap_3
XFILLER_5_335 VGND VGND VPWR VPWR sky130_fd_sc_hd__fill_1
XFILLER_5_346 VGND VGND VPWR VPWR sky130_fd_sc_hd__decap_3
XFILLER_5_379 VGND VGND VPWR VPWR sky130_fd_sc_hd__decap_3
XFILLER_3_15 VGND VGND VPWR VPWR sky130_fd_sc_hd__decap_3
XFILLER_3_48 VGND VGND VPWR VPWR sky130_fd_sc_hd__decap_3
XFILLER_8_162 VGND VGND VPWR VPWR sky130_fd_sc_hd__decap_3
XFILLER_8_195 VGND VGND VPWR VPWR sky130_fd_sc_hd__fill_1
XFILLER_10_128 VGND VGND VPWR VPWR sky130_fd_sc_hd__decap_3
XFILLER_2_327 VGND VGND VPWR VPWR sky130_fd_sc_hd__decap_3
XTAP_TAPCELL_ROW_11_134 VGND VPWR sky130_fd_sc_hd__tapvpwrvgnd_1
XTAP_TAPCELL_ROW_11_123 VGND VPWR sky130_fd_sc_hd__tapvpwrvgnd_1
XFILLER_5_143 VGND VGND VPWR VPWR sky130_fd_sc_hd__decap_3
XFILLER_5_187 VGND VGND VPWR VPWR sky130_fd_sc_hd__decap_3
XFILLER_4_80 VGND VGND VPWR VPWR sky130_fd_sc_hd__decap_3
XFILLER_4_91 VGND VGND VPWR VPWR sky130_fd_sc_hd__decap_3
XPHY_EDGE_ROW_4_Left_16 VGND VGND VPWR VPWR sky130_fd_sc_hd__decap_3
XFILLER_7_408 VGND VGND VPWR VPWR sky130_fd_sc_hd__decap_3
XFILLER_2_124 VGND VGND VPWR VPWR sky130_fd_sc_hd__decap_3
XFILLER_2_179 VGND VGND VPWR VPWR sky130_fd_sc_hd__decap_3
XFILLER_0_27 VGND VGND VPWR VPWR sky130_fd_sc_hd__fill_1
XFILLER_0_38 VGND VGND VPWR VPWR sky130_fd_sc_hd__decap_3
XFILLER_9_69 VGND VGND VPWR VPWR sky130_fd_sc_hd__decap_3
XFILLER_9_25 VGND VGND VPWR VPWR sky130_fd_sc_hd__decap_3
XFILLER_10_470 VGND VGND VPWR VPWR sky130_fd_sc_hd__decap_3
XFILLER_6_430 VGND VGND VPWR VPWR sky130_fd_sc_hd__decap_3
XFILLER_6_463 VGND VGND VPWR VPWR sky130_fd_sc_hd__fill_2
XFILLER_9_290 VGND VGND VPWR VPWR sky130_fd_sc_hd__decap_3
XFILLER_11_201 VGND VGND VPWR VPWR sky130_fd_sc_hd__decap_3
XFILLER_11_256 VGND VGND VPWR VPWR sky130_fd_sc_hd__decap_3
XFILLER_11_234 VGND VGND VPWR VPWR sky130_fd_sc_hd__decap_3
X_042_ FrameStrobe[10] VGND VGND VPWR VPWR net34 sky130_fd_sc_hd__buf_1
XFILLER_3_411 VGND VGND VPWR VPWR sky130_fd_sc_hd__decap_3
XFILLER_7_249 VGND VGND VPWR VPWR sky130_fd_sc_hd__decap_3
XFILLER_3_444 VGND VGND VPWR VPWR sky130_fd_sc_hd__decap_3
XFILLER_3_455 VGND VGND VPWR VPWR sky130_fd_sc_hd__decap_3
XFILLER_6_271 VGND VGND VPWR VPWR sky130_fd_sc_hd__decap_3
XFILLER_1_81 VGND VGND VPWR VPWR sky130_fd_sc_hd__decap_3
XFILLER_0_436 VGND VGND VPWR VPWR sky130_fd_sc_hd__decap_3
XFILLER_0_414 VGND VGND VPWR VPWR sky130_fd_sc_hd__decap_3
XFILLER_3_230 VGND VGND VPWR VPWR sky130_fd_sc_hd__decap_3
X_025_ FrameData[25] VGND VGND VPWR VPWR net18 sky130_fd_sc_hd__clkbuf_1
XFILLER_6_15 VGND VGND VPWR VPWR sky130_fd_sc_hd__decap_3
XFILLER_6_59 VGND VGND VPWR VPWR sky130_fd_sc_hd__decap_3
XANTENNA_8 FrameData[18] VGND VGND VPWR VPWR sky130_fd_sc_hd__diode_2
XFILLER_10_90 VGND VGND VPWR VPWR sky130_fd_sc_hd__fill_1
XFILLER_3_274 VGND VGND VPWR VPWR sky130_fd_sc_hd__decap_3
XTAP_TAPCELL_ROW_6_80 VGND VPWR sky130_fd_sc_hd__tapvpwrvgnd_1
Xoutput34 net34 VGND VGND VPWR VPWR FrameStrobe_O[10] sky130_fd_sc_hd__buf_2
XTAP_TAPCELL_ROW_2_49 VGND VPWR sky130_fd_sc_hd__tapvpwrvgnd_1
Xoutput12 net12 VGND VGND VPWR VPWR FrameData_O[1] sky130_fd_sc_hd__buf_2
Xoutput23 net23 VGND VGND VPWR VPWR FrameData_O[2] sky130_fd_sc_hd__buf_2
Xoutput45 net45 VGND VGND VPWR VPWR FrameStrobe_O[2] sky130_fd_sc_hd__buf_2
Xoutput89 net89 VGND VGND VPWR VPWR NN4BEG[0] sky130_fd_sc_hd__buf_2
Xoutput78 net78 VGND VGND VPWR VPWR N4BEG[14] sky130_fd_sc_hd__buf_2
Xoutput67 net67 VGND VGND VPWR VPWR N2BEGb[2] sky130_fd_sc_hd__buf_2
Xoutput56 net56 VGND VGND VPWR VPWR N1BEG[3] sky130_fd_sc_hd__buf_2
XFILLER_0_299 VGND VGND VPWR VPWR sky130_fd_sc_hd__decap_3
XFILLER_0_277 VGND VGND VPWR VPWR sky130_fd_sc_hd__decap_3
XFILLER_0_200 VGND VGND VPWR VPWR sky130_fd_sc_hd__decap_3
XFILLER_8_333 VGND VGND VPWR VPWR sky130_fd_sc_hd__decap_3
XFILLER_8_377 VGND VGND VPWR VPWR sky130_fd_sc_hd__decap_3
X_008_ FrameData[8] VGND VGND VPWR VPWR net31 sky130_fd_sc_hd__buf_1
XFILLER_8_399 VGND VGND VPWR VPWR sky130_fd_sc_hd__decap_3
XFILLER_11_3 VGND VGND VPWR VPWR sky130_fd_sc_hd__fill_1
XTAP_TAPCELL_ROW_9_108 VGND VPWR sky130_fd_sc_hd__tapvpwrvgnd_1
XFILLER_9_119 VGND VGND VPWR VPWR sky130_fd_sc_hd__decap_3
XFILLER_9_108 VGND VGND VPWR VPWR sky130_fd_sc_hd__decap_3
XFILLER_3_27 VGND VGND VPWR VPWR sky130_fd_sc_hd__decap_3
XFILLER_5_314 VGND VGND VPWR VPWR sky130_fd_sc_hd__decap_3
XFILLER_5_358 VGND VGND VPWR VPWR sky130_fd_sc_hd__decap_3
XFILLER_8_174 VGND VGND VPWR VPWR sky130_fd_sc_hd__decap_3
XFILLER_4_380 VGND VGND VPWR VPWR sky130_fd_sc_hd__decap_3
XFILLER_2_339 VGND VGND VPWR VPWR sky130_fd_sc_hd__decap_3
XTAP_TAPCELL_ROW_11_135 VGND VPWR sky130_fd_sc_hd__tapvpwrvgnd_1
XTAP_TAPCELL_ROW_11_124 VGND VPWR sky130_fd_sc_hd__tapvpwrvgnd_1
XFILLER_5_111 VGND VGND VPWR VPWR sky130_fd_sc_hd__fill_1
XFILLER_5_122 VGND VGND VPWR VPWR sky130_fd_sc_hd__decap_3
XFILLER_5_155 VGND VGND VPWR VPWR sky130_fd_sc_hd__decap_3
XFILLER_1_361 VGND VGND VPWR VPWR sky130_fd_sc_hd__decap_3
XFILLER_5_199 VGND VGND VPWR VPWR sky130_fd_sc_hd__decap_3
XFILLER_11_405 VGND VGND VPWR VPWR sky130_fd_sc_hd__fill_1
XFILLER_2_103 VGND VGND VPWR VPWR sky130_fd_sc_hd__decap_3
XFILLER_2_147 VGND VGND VPWR VPWR sky130_fd_sc_hd__fill_2
XFILLER_2_158 VGND VGND VPWR VPWR sky130_fd_sc_hd__decap_3
XFILLER_9_37 VGND VGND VPWR VPWR sky130_fd_sc_hd__decap_3
XFILLER_6_442 VGND VGND VPWR VPWR sky130_fd_sc_hd__decap_3
XFILLER_1_191 VGND VGND VPWR VPWR sky130_fd_sc_hd__decap_3
XFILLER_11_246 VGND VGND VPWR VPWR sky130_fd_sc_hd__decap_3
XFILLER_11_213 VGND VGND VPWR VPWR sky130_fd_sc_hd__decap_3
XFILLER_11_268 VGND VGND VPWR VPWR sky130_fd_sc_hd__decap_3
X_041_ FrameStrobe[9] VGND VGND VPWR VPWR net52 sky130_fd_sc_hd__buf_1
XFILLER_3_423 VGND VGND VPWR VPWR sky130_fd_sc_hd__decap_3
XFILLER_7_217 VGND VGND VPWR VPWR sky130_fd_sc_hd__decap_3
XFILLER_7_228 VGND VGND VPWR VPWR sky130_fd_sc_hd__decap_3
XFILLER_6_283 VGND VGND VPWR VPWR sky130_fd_sc_hd__decap_3
XFILLER_1_60 VGND VGND VPWR VPWR sky130_fd_sc_hd__decap_3
XFILLER_1_93 VGND VGND VPWR VPWR sky130_fd_sc_hd__fill_1
XFILLER_4_209 VGND VGND VPWR VPWR sky130_fd_sc_hd__decap_3
XFILLER_10_80 VGND VGND VPWR VPWR sky130_fd_sc_hd__decap_3
XANTENNA_9 FrameData[1] VGND VGND VPWR VPWR sky130_fd_sc_hd__diode_2
XFILLER_3_220 VGND VGND VPWR VPWR sky130_fd_sc_hd__decap_3
XFILLER_3_286 VGND VGND VPWR VPWR sky130_fd_sc_hd__decap_3
XFILLER_6_27 VGND VGND VPWR VPWR sky130_fd_sc_hd__fill_1
XFILLER_6_38 VGND VGND VPWR VPWR sky130_fd_sc_hd__decap_3
X_024_ FrameData[24] VGND VGND VPWR VPWR net17 sky130_fd_sc_hd__clkbuf_1
XTAP_TAPCELL_ROW_6_81 VGND VPWR sky130_fd_sc_hd__tapvpwrvgnd_1
Xoutput35 net35 VGND VGND VPWR VPWR FrameStrobe_O[11] sky130_fd_sc_hd__buf_2
Xoutput46 net46 VGND VGND VPWR VPWR FrameStrobe_O[3] sky130_fd_sc_hd__buf_2
Xoutput57 net57 VGND VGND VPWR VPWR N2BEG[0] sky130_fd_sc_hd__buf_2
Xoutput24 net24 VGND VGND VPWR VPWR FrameData_O[30] sky130_fd_sc_hd__buf_2
XFILLER_0_212 VGND VGND VPWR VPWR sky130_fd_sc_hd__decap_3
Xoutput13 net13 VGND VGND VPWR VPWR FrameData_O[20] sky130_fd_sc_hd__buf_2
Xoutput79 net79 VGND VGND VPWR VPWR N4BEG[15] sky130_fd_sc_hd__buf_2
Xoutput68 net68 VGND VGND VPWR VPWR N2BEGb[3] sky130_fd_sc_hd__buf_2
XFILLER_0_256 VGND VGND VPWR VPWR sky130_fd_sc_hd__decap_3
XFILLER_0_234 VGND VGND VPWR VPWR sky130_fd_sc_hd__decap_3
XFILLER_8_301 VGND VGND VPWR VPWR sky130_fd_sc_hd__decap_3
XFILLER_8_312 VGND VGND VPWR VPWR sky130_fd_sc_hd__decap_3
XFILLER_8_345 VGND VGND VPWR VPWR sky130_fd_sc_hd__decap_3
XFILLER_8_389 VGND VGND VPWR VPWR sky130_fd_sc_hd__decap_3
X_007_ FrameData[7] VGND VGND VPWR VPWR net30 sky130_fd_sc_hd__buf_1
XTAP_TAPCELL_ROW_9_109 VGND VPWR sky130_fd_sc_hd__tapvpwrvgnd_1
XFILLER_7_81 VGND VGND VPWR VPWR sky130_fd_sc_hd__decap_3
XFILLER_5_337 VGND VGND VPWR VPWR sky130_fd_sc_hd__decap_3
XFILLER_3_39 VGND VGND VPWR VPWR sky130_fd_sc_hd__decap_3
XTAP_TAPCELL_ROW_3_60 VGND VPWR sky130_fd_sc_hd__tapvpwrvgnd_1
XFILLER_8_153 VGND VGND VPWR VPWR sky130_fd_sc_hd__decap_3
XFILLER_8_186 VGND VGND VPWR VPWR sky130_fd_sc_hd__decap_3
XFILLER_8_197 VGND VGND VPWR VPWR sky130_fd_sc_hd__decap_3
XFILLER_4_392 VGND VGND VPWR VPWR sky130_fd_sc_hd__decap_3
XFILLER_2_307 VGND VGND VPWR VPWR sky130_fd_sc_hd__fill_1
XFILLER_2_318 VGND VGND VPWR VPWR sky130_fd_sc_hd__decap_3
XFILLER_5_9 VGND VGND VPWR VPWR sky130_fd_sc_hd__decap_3
XTAP_TAPCELL_ROW_11_125 VGND VPWR sky130_fd_sc_hd__tapvpwrvgnd_1
XFILLER_5_134 VGND VGND VPWR VPWR sky130_fd_sc_hd__decap_3
XFILLER_5_167 VGND VGND VPWR VPWR sky130_fd_sc_hd__fill_1
XFILLER_5_178 VGND VGND VPWR VPWR sky130_fd_sc_hd__decap_3
XFILLER_1_373 VGND VGND VPWR VPWR sky130_fd_sc_hd__decap_3
XFILLER_1_340 VGND VGND VPWR VPWR sky130_fd_sc_hd__decap_3
XFILLER_9_440 VGND VGND VPWR VPWR sky130_fd_sc_hd__decap_3
XFILLER_4_71 VGND VGND VPWR VPWR sky130_fd_sc_hd__decap_3
XFILLER_2_115 VGND VGND VPWR VPWR sky130_fd_sc_hd__decap_3
XFILLER_3_6 VGND VGND VPWR VPWR sky130_fd_sc_hd__decap_3
XFILLER_0_18 VGND VGND VPWR VPWR sky130_fd_sc_hd__decap_3
XFILLER_0_29 VGND VGND VPWR VPWR sky130_fd_sc_hd__decap_3
XFILLER_9_49 VGND VGND VPWR VPWR sky130_fd_sc_hd__decap_3
XFILLER_9_16 VGND VGND VPWR VPWR sky130_fd_sc_hd__decap_3
XFILLER_6_410 VGND VGND VPWR VPWR sky130_fd_sc_hd__decap_3
XFILLER_6_421 VGND VGND VPWR VPWR sky130_fd_sc_hd__decap_3
XFILLER_6_454 VGND VGND VPWR VPWR sky130_fd_sc_hd__decap_3
XFILLER_9_281 VGND VGND VPWR VPWR sky130_fd_sc_hd__decap_3
XFILLER_9_270 VGND VGND VPWR VPWR sky130_fd_sc_hd__decap_3
XFILLER_11_225 VGND VGND VPWR VPWR sky130_fd_sc_hd__decap_3
XFILLER_1_3 VGND VGND VPWR VPWR sky130_fd_sc_hd__decap_3
X_040_ FrameStrobe[8] VGND VGND VPWR VPWR net51 sky130_fd_sc_hd__clkbuf_1
XFILLER_3_402 VGND VGND VPWR VPWR sky130_fd_sc_hd__decap_3
XFILLER_3_435 VGND VGND VPWR VPWR sky130_fd_sc_hd__decap_3
XFILLER_10_291 VGND VGND VPWR VPWR sky130_fd_sc_hd__decap_3
XFILLER_6_251 VGND VGND VPWR VPWR sky130_fd_sc_hd__fill_1
XFILLER_6_295 VGND VGND VPWR VPWR sky130_fd_sc_hd__decap_3
XFILLER_1_72 VGND VGND VPWR VPWR sky130_fd_sc_hd__fill_2
XFILLER_0_449 VGND VGND VPWR VPWR sky130_fd_sc_hd__decap_3
XFILLER_0_427 VGND VGND VPWR VPWR sky130_fd_sc_hd__decap_3
XFILLER_0_405 VGND VGND VPWR VPWR sky130_fd_sc_hd__decap_3
X_023_ FrameData[23] VGND VGND VPWR VPWR net16 sky130_fd_sc_hd__buf_1
XFILLER_3_265 VGND VGND VPWR VPWR sky130_fd_sc_hd__fill_1
XFILLER_3_298 VGND VGND VPWR VPWR sky130_fd_sc_hd__decap_3
XTAP_TAPCELL_ROW_6_82 VGND VPWR sky130_fd_sc_hd__tapvpwrvgnd_1
Xoutput36 net36 VGND VGND VPWR VPWR FrameStrobe_O[12] sky130_fd_sc_hd__buf_2
Xoutput47 net47 VGND VGND VPWR VPWR FrameStrobe_O[4] sky130_fd_sc_hd__buf_2
Xoutput69 net69 VGND VGND VPWR VPWR N2BEGb[4] sky130_fd_sc_hd__buf_2
Xoutput58 net58 VGND VGND VPWR VPWR N2BEG[1] sky130_fd_sc_hd__buf_2
Xoutput25 net25 VGND VGND VPWR VPWR FrameData_O[31] sky130_fd_sc_hd__buf_2
XFILLER_0_246 VGND VGND VPWR VPWR sky130_fd_sc_hd__decap_3
Xoutput14 net14 VGND VGND VPWR VPWR FrameData_O[21] sky130_fd_sc_hd__buf_2
XFILLER_0_268 VGND VGND VPWR VPWR sky130_fd_sc_hd__decap_3
X_006_ FrameData[6] VGND VGND VPWR VPWR net29 sky130_fd_sc_hd__buf_1
XFILLER_8_324 VGND VGND VPWR VPWR sky130_fd_sc_hd__decap_3
XFILLER_8_357 VGND VGND VPWR VPWR sky130_fd_sc_hd__decap_3
XFILLER_8_368 VGND VGND VPWR VPWR sky130_fd_sc_hd__decap_3
XFILLER_7_60 VGND VGND VPWR VPWR sky130_fd_sc_hd__decap_3
XFILLER_7_93 VGND VGND VPWR VPWR sky130_fd_sc_hd__decap_3
XFILLER_5_305 VGND VGND VPWR VPWR sky130_fd_sc_hd__decap_3
XFILLER_5_349 VGND VGND VPWR VPWR sky130_fd_sc_hd__decap_3
XFILLER_3_18 VGND VGND VPWR VPWR sky130_fd_sc_hd__decap_3
XFILLER_8_121 VGND VGND VPWR VPWR sky130_fd_sc_hd__decap_3
XTAP_TAPCELL_ROW_3_61 VGND VPWR sky130_fd_sc_hd__tapvpwrvgnd_1
XFILLER_4_371 VGND VGND VPWR VPWR sky130_fd_sc_hd__decap_3
XFILLER_8_165 VGND VGND VPWR VPWR sky130_fd_sc_hd__decap_3
XTAP_TAPCELL_ROW_11_126 VGND VPWR sky130_fd_sc_hd__tapvpwrvgnd_1
XFILLER_5_102 VGND VGND VPWR VPWR sky130_fd_sc_hd__decap_3
XFILLER_5_113 VGND VGND VPWR VPWR sky130_fd_sc_hd__decap_3
XFILLER_5_146 VGND VGND VPWR VPWR sky130_fd_sc_hd__decap_3
XFILLER_1_396 VGND VGND VPWR VPWR sky130_fd_sc_hd__decap_3
XFILLER_1_385 VGND VGND VPWR VPWR sky130_fd_sc_hd__decap_3
XFILLER_1_352 VGND VGND VPWR VPWR sky130_fd_sc_hd__decap_3
XFILLER_1_330 VGND VGND VPWR VPWR sky130_fd_sc_hd__decap_3
XFILLER_4_50 VGND VGND VPWR VPWR sky130_fd_sc_hd__decap_3
XFILLER_4_83 VGND VGND VPWR VPWR sky130_fd_sc_hd__fill_1
XFILLER_4_94 VGND VGND VPWR VPWR sky130_fd_sc_hd__decap_3
XFILLER_11_418 VGND VGND VPWR VPWR sky130_fd_sc_hd__fill_2
XFILLER_2_127 VGND VGND VPWR VPWR sky130_fd_sc_hd__decap_3
XFILLER_9_28 VGND VGND VPWR VPWR sky130_fd_sc_hd__decap_3
XFILLER_6_433 VGND VGND VPWR VPWR sky130_fd_sc_hd__decap_3
XFILLER_9_293 VGND VGND VPWR VPWR sky130_fd_sc_hd__fill_2
XFILLER_11_259 VGND VGND VPWR VPWR sky130_fd_sc_hd__decap_3
XFILLER_11_237 VGND VGND VPWR VPWR sky130_fd_sc_hd__decap_3
XFILLER_11_204 VGND VGND VPWR VPWR sky130_fd_sc_hd__decap_3
XFILLER_3_414 VGND VGND VPWR VPWR sky130_fd_sc_hd__decap_3
XFILLER_3_447 VGND VGND VPWR VPWR sky130_fd_sc_hd__fill_1
XFILLER_3_458 VGND VGND VPWR VPWR sky130_fd_sc_hd__decap_3
XFILLER_6_230 VGND VGND VPWR VPWR sky130_fd_sc_hd__decap_3
XFILLER_6_274 VGND VGND VPWR VPWR sky130_fd_sc_hd__decap_3
X_099_ SS4END[4] VGND VGND VPWR VPWR net91 sky130_fd_sc_hd__clkbuf_1
XFILLER_1_40 VGND VGND VPWR VPWR sky130_fd_sc_hd__decap_3
XFILLER_1_84 VGND VGND VPWR VPWR sky130_fd_sc_hd__decap_3
XFILLER_0_417 VGND VGND VPWR VPWR sky130_fd_sc_hd__decap_3