* NGSPICE file created from RegFile.ext - technology: sky130A

* Black-box entry subcircuit for sky130_fd_sc_hd__fill_1 abstract view
.subckt sky130_fd_sc_hd__fill_1 VGND VNB VPB VPWR
.ends

* Black-box entry subcircuit for sky130_fd_sc_hd__mux2_4 abstract view
.subckt sky130_fd_sc_hd__mux2_4 A0 A1 S VGND VNB VPB VPWR X
.ends

* Black-box entry subcircuit for sky130_fd_sc_hd__decap_3 abstract view
.subckt sky130_fd_sc_hd__decap_3 VGND VNB VPB VPWR
.ends

* Black-box entry subcircuit for sky130_fd_sc_hd__mux2_1 abstract view
.subckt sky130_fd_sc_hd__mux2_1 A0 A1 S VGND VNB VPB VPWR X
.ends

* Black-box entry subcircuit for sky130_fd_sc_hd__tapvpwrvgnd_1 abstract view
.subckt sky130_fd_sc_hd__tapvpwrvgnd_1 VGND VPWR
.ends

* Black-box entry subcircuit for sky130_fd_sc_hd__clkbuf_2 abstract view
.subckt sky130_fd_sc_hd__clkbuf_2 A VGND VNB VPB VPWR X
.ends

* Black-box entry subcircuit for sky130_fd_sc_hd__fill_2 abstract view
.subckt sky130_fd_sc_hd__fill_2 VGND VNB VPB VPWR
.ends

* Black-box entry subcircuit for sky130_fd_sc_hd__a21o_1 abstract view
.subckt sky130_fd_sc_hd__a21o_1 A1 A2 B1 VGND VNB VPB VPWR X
.ends

* Black-box entry subcircuit for sky130_fd_sc_hd__dlxtp_1 abstract view
.subckt sky130_fd_sc_hd__dlxtp_1 D GATE VGND VNB VPB VPWR Q
.ends

* Black-box entry subcircuit for sky130_fd_sc_hd__and2b_1 abstract view
.subckt sky130_fd_sc_hd__and2b_1 A_N B VGND VNB VPB VPWR X
.ends

* Black-box entry subcircuit for sky130_fd_sc_hd__mux4_2 abstract view
.subckt sky130_fd_sc_hd__mux4_2 A0 A1 A2 A3 S0 S1 VGND VNB VPB VPWR X
.ends

* Black-box entry subcircuit for sky130_fd_sc_hd__dlygate4sd3_1 abstract view
.subckt sky130_fd_sc_hd__dlygate4sd3_1 A VGND VNB VPB VPWR X
.ends

* Black-box entry subcircuit for sky130_fd_sc_hd__buf_8 abstract view
.subckt sky130_fd_sc_hd__buf_8 A VGND VNB VPB VPWR X
.ends

* Black-box entry subcircuit for sky130_fd_sc_hd__clkbuf_4 abstract view
.subckt sky130_fd_sc_hd__clkbuf_4 A VGND VNB VPB VPWR X
.ends

* Black-box entry subcircuit for sky130_fd_sc_hd__buf_2 abstract view
.subckt sky130_fd_sc_hd__buf_2 A VGND VNB VPB VPWR X
.ends

* Black-box entry subcircuit for sky130_fd_sc_hd__a2bb2o_4 abstract view
.subckt sky130_fd_sc_hd__a2bb2o_4 A1_N A2_N B1 B2 VGND VNB VPB VPWR X
.ends

* Black-box entry subcircuit for sky130_fd_sc_hd__mux4_1 abstract view
.subckt sky130_fd_sc_hd__mux4_1 A0 A1 A2 A3 S0 S1 VGND VNB VPB VPWR X
.ends

* Black-box entry subcircuit for sky130_fd_sc_hd__nand2_1 abstract view
.subckt sky130_fd_sc_hd__nand2_1 A B VGND VNB VPB VPWR Y
.ends

* Black-box entry subcircuit for sky130_fd_sc_hd__buf_6 abstract view
.subckt sky130_fd_sc_hd__buf_6 A VGND VNB VPB VPWR X
.ends

* Black-box entry subcircuit for sky130_fd_sc_hd__a22o_1 abstract view
.subckt sky130_fd_sc_hd__a22o_1 A1 A2 B1 B2 VGND VNB VPB VPWR X
.ends

* Black-box entry subcircuit for sky130_fd_sc_hd__o211a_1 abstract view
.subckt sky130_fd_sc_hd__o211a_1 A1 A2 B1 C1 VGND VNB VPB VPWR X
.ends

* Black-box entry subcircuit for sky130_fd_sc_hd__dfxtp_1 abstract view
.subckt sky130_fd_sc_hd__dfxtp_1 CLK D VGND VNB VPB VPWR Q
.ends

* Black-box entry subcircuit for sky130_fd_sc_hd__a31o_1 abstract view
.subckt sky130_fd_sc_hd__a31o_1 A1 A2 A3 B1 VGND VNB VPB VPWR X
.ends

* Black-box entry subcircuit for sky130_fd_sc_hd__inv_2 abstract view
.subckt sky130_fd_sc_hd__inv_2 A VGND VNB VPB VPWR Y
.ends

* Black-box entry subcircuit for sky130_fd_sc_hd__nor2_4 abstract view
.subckt sky130_fd_sc_hd__nor2_4 A B VGND VNB VPB VPWR Y
.ends

* Black-box entry subcircuit for sky130_fd_sc_hd__mux2_2 abstract view
.subckt sky130_fd_sc_hd__mux2_2 A0 A1 S VGND VNB VPB VPWR X
.ends

* Black-box entry subcircuit for sky130_fd_sc_hd__diode_2 abstract view
.subckt sky130_fd_sc_hd__diode_2 DIODE VGND VNB VPB VPWR
.ends

* Black-box entry subcircuit for sky130_fd_sc_hd__buf_1 abstract view
.subckt sky130_fd_sc_hd__buf_1 A VGND VNB VPB VPWR X
.ends

* Black-box entry subcircuit for sky130_fd_sc_hd__or2_1 abstract view
.subckt sky130_fd_sc_hd__or2_1 A B VGND VNB VPB VPWR X
.ends

* Black-box entry subcircuit for sky130_fd_sc_hd__a22o_4 abstract view
.subckt sky130_fd_sc_hd__a22o_4 A1 A2 B1 B2 VGND VNB VPB VPWR X
.ends

* Black-box entry subcircuit for sky130_fd_sc_hd__nor2_8 abstract view
.subckt sky130_fd_sc_hd__nor2_8 A B VGND VNB VPB VPWR Y
.ends

* Black-box entry subcircuit for sky130_fd_sc_hd__inv_8 abstract view
.subckt sky130_fd_sc_hd__inv_8 A VGND VNB VPB VPWR Y
.ends

* Black-box entry subcircuit for sky130_fd_sc_hd__o21a_1 abstract view
.subckt sky130_fd_sc_hd__o21a_1 A1 A2 B1 VGND VNB VPB VPWR X
.ends

* Black-box entry subcircuit for sky130_fd_sc_hd__inv_1 abstract view
.subckt sky130_fd_sc_hd__inv_1 A VGND VNB VPB VPWR Y
.ends

* Black-box entry subcircuit for sky130_fd_sc_hd__nor2_1 abstract view
.subckt sky130_fd_sc_hd__nor2_1 A B VGND VNB VPB VPWR Y
.ends

* Black-box entry subcircuit for sky130_fd_sc_hd__o21ai_1 abstract view
.subckt sky130_fd_sc_hd__o21ai_1 A1 A2 B1 VGND VNB VPB VPWR Y
.ends

* Black-box entry subcircuit for sky130_fd_sc_hd__a21oi_4 abstract view
.subckt sky130_fd_sc_hd__a21oi_4 A1 A2 B1 VGND VNB VPB VPWR Y
.ends

* Black-box entry subcircuit for sky130_fd_sc_hd__clkbuf_8 abstract view
.subckt sky130_fd_sc_hd__clkbuf_8 A VGND VNB VPB VPWR X
.ends

* Black-box entry subcircuit for sky130_fd_sc_hd__clkbuf_1 abstract view
.subckt sky130_fd_sc_hd__clkbuf_1 A VGND VNB VPB VPWR X
.ends

* Black-box entry subcircuit for sky130_fd_sc_hd__a21oi_1 abstract view
.subckt sky130_fd_sc_hd__a21oi_1 A1 A2 B1 VGND VNB VPB VPWR Y
.ends

* Black-box entry subcircuit for sky130_fd_sc_hd__nand2_8 abstract view
.subckt sky130_fd_sc_hd__nand2_8 A B VGND VNB VPB VPWR Y
.ends

* Black-box entry subcircuit for sky130_fd_sc_hd__a211oi_1 abstract view
.subckt sky130_fd_sc_hd__a211oi_1 A1 A2 B1 C1 VGND VNB VPB VPWR Y
.ends

* Black-box entry subcircuit for sky130_fd_sc_hd__nand2_2 abstract view
.subckt sky130_fd_sc_hd__nand2_2 A B VGND VNB VPB VPWR Y
.ends

* Black-box entry subcircuit for sky130_fd_sc_hd__and3_1 abstract view
.subckt sky130_fd_sc_hd__and3_1 A B C VGND VNB VPB VPWR X
.ends

* Black-box entry subcircuit for sky130_fd_sc_hd__or2_4 abstract view
.subckt sky130_fd_sc_hd__or2_4 A B VGND VNB VPB VPWR X
.ends

* Black-box entry subcircuit for sky130_fd_sc_hd__a211o_1 abstract view
.subckt sky130_fd_sc_hd__a211o_1 A1 A2 B1 C1 VGND VNB VPB VPWR X
.ends

* Black-box entry subcircuit for sky130_fd_sc_hd__or3_4 abstract view
.subckt sky130_fd_sc_hd__or3_4 A B C VGND VNB VPB VPWR X
.ends

* Black-box entry subcircuit for sky130_fd_sc_hd__nand2b_1 abstract view
.subckt sky130_fd_sc_hd__nand2b_1 A_N B VGND VNB VPB VPWR Y
.ends

* Black-box entry subcircuit for sky130_fd_sc_hd__o31a_1 abstract view
.subckt sky130_fd_sc_hd__o31a_1 A1 A2 A3 B1 VGND VNB VPB VPWR X
.ends

* Black-box entry subcircuit for sky130_fd_sc_hd__inv_6 abstract view
.subckt sky130_fd_sc_hd__inv_6 A VGND VNB VPB VPWR Y
.ends

* Black-box entry subcircuit for sky130_fd_sc_hd__a21boi_2 abstract view
.subckt sky130_fd_sc_hd__a21boi_2 A1 A2 B1_N VGND VNB VPB VPWR Y
.ends

* Black-box entry subcircuit for sky130_fd_sc_hd__a221o_2 abstract view
.subckt sky130_fd_sc_hd__a221o_2 A1 A2 B1 B2 C1 VGND VNB VPB VPWR X
.ends

* Black-box entry subcircuit for sky130_fd_sc_hd__a2bb2o_1 abstract view
.subckt sky130_fd_sc_hd__a2bb2o_1 A1_N A2_N B1 B2 VGND VNB VPB VPWR X
.ends

* Black-box entry subcircuit for sky130_fd_sc_hd__a32oi_1 abstract view
.subckt sky130_fd_sc_hd__a32oi_1 A1 A2 A3 B1 B2 VGND VNB VPB VPWR Y
.ends

* Black-box entry subcircuit for sky130_fd_sc_hd__buf_4 abstract view
.subckt sky130_fd_sc_hd__buf_4 A VGND VNB VPB VPWR X
.ends

* Black-box entry subcircuit for sky130_fd_sc_hd__dlymetal6s2s_1 abstract view
.subckt sky130_fd_sc_hd__dlymetal6s2s_1 A VGND VNB VPB VPWR X
.ends

* Black-box entry subcircuit for sky130_fd_sc_hd__o221a_1 abstract view
.subckt sky130_fd_sc_hd__o221a_1 A1 A2 B1 B2 C1 VGND VNB VPB VPWR X
.ends

* Black-box entry subcircuit for sky130_fd_sc_hd__buf_12 abstract view
.subckt sky130_fd_sc_hd__buf_12 A VGND VNB VPB VPWR X
.ends

* Black-box entry subcircuit for sky130_fd_sc_hd__nand2b_4 abstract view
.subckt sky130_fd_sc_hd__nand2b_4 A_N B VGND VNB VPB VPWR Y
.ends

* Black-box entry subcircuit for sky130_fd_sc_hd__a221o_1 abstract view
.subckt sky130_fd_sc_hd__a221o_1 A1 A2 B1 B2 C1 VGND VNB VPB VPWR X
.ends

* Black-box entry subcircuit for sky130_fd_sc_hd__clkinvlp_4 abstract view
.subckt sky130_fd_sc_hd__clkinvlp_4 A VGND VNB VPB VPWR Y
.ends

* Black-box entry subcircuit for sky130_fd_sc_hd__a32o_1 abstract view
.subckt sky130_fd_sc_hd__a32o_1 A1 A2 A3 B1 B2 VGND VNB VPB VPWR X
.ends

* Black-box entry subcircuit for sky130_fd_sc_hd__a32oi_4 abstract view
.subckt sky130_fd_sc_hd__a32oi_4 A1 A2 A3 B1 B2 VGND VNB VPB VPWR Y
.ends

* Black-box entry subcircuit for sky130_fd_sc_hd__and2b_2 abstract view
.subckt sky130_fd_sc_hd__and2b_2 A_N B VGND VNB VPB VPWR X
.ends

* Black-box entry subcircuit for sky130_fd_sc_hd__o22a_1 abstract view
.subckt sky130_fd_sc_hd__o22a_1 A1 A2 B1 B2 VGND VNB VPB VPWR X
.ends

* Black-box entry subcircuit for sky130_fd_sc_hd__nand2_4 abstract view
.subckt sky130_fd_sc_hd__nand2_4 A B VGND VNB VPB VPWR Y
.ends

* Black-box entry subcircuit for sky130_fd_sc_hd__clkinv_2 abstract view
.subckt sky130_fd_sc_hd__clkinv_2 A VGND VNB VPB VPWR Y
.ends

* Black-box entry subcircuit for sky130_fd_sc_hd__bufinv_16 abstract view
.subckt sky130_fd_sc_hd__bufinv_16 A VGND VNB VPB VPWR Y
.ends

* Black-box entry subcircuit for sky130_fd_sc_hd__clkinv_4 abstract view
.subckt sky130_fd_sc_hd__clkinv_4 A VGND VNB VPB VPWR Y
.ends

* Black-box entry subcircuit for sky130_fd_sc_hd__a21oi_2 abstract view
.subckt sky130_fd_sc_hd__a21oi_2 A1 A2 B1 VGND VNB VPB VPWR Y
.ends

* Black-box entry subcircuit for sky130_fd_sc_hd__clkbuf_16 abstract view
.subckt sky130_fd_sc_hd__clkbuf_16 A VGND VNB VPB VPWR X
.ends

* Black-box entry subcircuit for sky130_fd_sc_hd__nor2_2 abstract view
.subckt sky130_fd_sc_hd__nor2_2 A B VGND VNB VPB VPWR Y
.ends

* Black-box entry subcircuit for sky130_fd_sc_hd__a31o_2 abstract view
.subckt sky130_fd_sc_hd__a31o_2 A1 A2 A3 B1 VGND VNB VPB VPWR X
.ends

* Black-box entry subcircuit for sky130_fd_sc_hd__inv_4 abstract view
.subckt sky130_fd_sc_hd__inv_4 A VGND VNB VPB VPWR Y
.ends

* Black-box entry subcircuit for sky130_fd_sc_hd__a22oi_4 abstract view
.subckt sky130_fd_sc_hd__a22oi_4 A1 A2 B1 B2 VGND VNB VPB VPWR Y
.ends

* Black-box entry subcircuit for sky130_fd_sc_hd__a21bo_1 abstract view
.subckt sky130_fd_sc_hd__a21bo_1 A1 A2 B1_N VGND VNB VPB VPWR X
.ends

* Black-box entry subcircuit for sky130_fd_sc_hd__o22a_4 abstract view
.subckt sky130_fd_sc_hd__o22a_4 A1 A2 B1 B2 VGND VNB VPB VPWR X
.ends

* Black-box entry subcircuit for sky130_fd_sc_hd__a31o_4 abstract view
.subckt sky130_fd_sc_hd__a31o_4 A1 A2 A3 B1 VGND VNB VPB VPWR X
.ends

* Black-box entry subcircuit for sky130_fd_sc_hd__o2bb2a_1 abstract view
.subckt sky130_fd_sc_hd__o2bb2a_1 A1_N A2_N B1 B2 VGND VNB VPB VPWR X
.ends

* Black-box entry subcircuit for sky130_fd_sc_hd__o21ba_1 abstract view
.subckt sky130_fd_sc_hd__o21ba_1 A1 A2 B1_N VGND VNB VPB VPWR X
.ends

* Black-box entry subcircuit for sky130_fd_sc_hd__o32a_4 abstract view
.subckt sky130_fd_sc_hd__o32a_4 A1 A2 A3 B1 B2 VGND VNB VPB VPWR X
.ends

* Black-box entry subcircuit for sky130_fd_sc_hd__a31oi_1 abstract view
.subckt sky130_fd_sc_hd__a31oi_1 A1 A2 A3 B1 VGND VNB VPB VPWR Y
.ends

* Black-box entry subcircuit for sky130_fd_sc_hd__o211ai_1 abstract view
.subckt sky130_fd_sc_hd__o211ai_1 A1 A2 B1 C1 VGND VNB VPB VPWR Y
.ends

* Black-box entry subcircuit for sky130_fd_sc_hd__o21ai_2 abstract view
.subckt sky130_fd_sc_hd__o21ai_2 A1 A2 B1 VGND VNB VPB VPWR Y
.ends

* Black-box entry subcircuit for sky130_fd_sc_hd__o311a_1 abstract view
.subckt sky130_fd_sc_hd__o311a_1 A1 A2 A3 B1 C1 VGND VNB VPB VPWR X
.ends

* Black-box entry subcircuit for sky130_fd_sc_hd__a22oi_2 abstract view
.subckt sky130_fd_sc_hd__a22oi_2 A1 A2 B1 B2 VGND VNB VPB VPWR Y
.ends

* Black-box entry subcircuit for sky130_fd_sc_hd__nor3_2 abstract view
.subckt sky130_fd_sc_hd__nor3_2 A B C VGND VNB VPB VPWR Y
.ends

* Black-box entry subcircuit for sky130_fd_sc_hd__o21ba_4 abstract view
.subckt sky130_fd_sc_hd__o21ba_4 A1 A2 B1_N VGND VNB VPB VPWR X
.ends

* Black-box entry subcircuit for sky130_fd_sc_hd__dlygate4sd1_1 abstract view
.subckt sky130_fd_sc_hd__dlygate4sd1_1 A VGND VNB VPB VPWR X
.ends

* Black-box entry subcircuit for sky130_fd_sc_hd__a21o_4 abstract view
.subckt sky130_fd_sc_hd__a21o_4 A1 A2 B1 VGND VNB VPB VPWR X
.ends

* Black-box entry subcircuit for sky130_fd_sc_hd__and2_4 abstract view
.subckt sky130_fd_sc_hd__and2_4 A B VGND VNB VPB VPWR X
.ends

.subckt RegFile E1BEG[0] E1BEG[1] E1BEG[2] E1BEG[3] E1END[0] E1END[1] E1END[2] E1END[3]
+ E2BEG[0] E2BEG[1] E2BEG[2] E2BEG[3] E2BEG[4] E2BEG[5] E2BEG[6] E2BEG[7] E2BEGb[0]
+ E2BEGb[1] E2BEGb[2] E2BEGb[3] E2BEGb[4] E2BEGb[5] E2BEGb[6] E2BEGb[7] E2END[0] E2END[1]
+ E2END[2] E2END[3] E2END[4] E2END[5] E2END[6] E2END[7] E2MID[0] E2MID[1] E2MID[2]
+ E2MID[3] E2MID[4] E2MID[5] E2MID[6] E2MID[7] E6BEG[0] E6BEG[10] E6BEG[11] E6BEG[1]
+ E6BEG[2] E6BEG[3] E6BEG[4] E6BEG[5] E6BEG[6] E6BEG[7] E6BEG[8] E6BEG[9] E6END[0]
+ E6END[10] E6END[11] E6END[1] E6END[2] E6END[3] E6END[4] E6END[5] E6END[6] E6END[7]
+ E6END[8] E6END[9] EE4BEG[0] EE4BEG[10] EE4BEG[11] EE4BEG[12] EE4BEG[13] EE4BEG[14]
+ EE4BEG[15] EE4BEG[1] EE4BEG[2] EE4BEG[3] EE4BEG[4] EE4BEG[5] EE4BEG[6] EE4BEG[7]
+ EE4BEG[8] EE4BEG[9] EE4END[0] EE4END[10] EE4END[11] EE4END[12] EE4END[13] EE4END[14]
+ EE4END[15] EE4END[1] EE4END[2] EE4END[3] EE4END[4] EE4END[5] EE4END[6] EE4END[7]
+ EE4END[8] EE4END[9] FrameData[0] FrameData[10] FrameData[11] FrameData[12] FrameData[13]
+ FrameData[14] FrameData[15] FrameData[16] FrameData[17] FrameData[18] FrameData[19]
+ FrameData[1] FrameData[20] FrameData[21] FrameData[22] FrameData[23] FrameData[24]
+ FrameData[25] FrameData[26] FrameData[27] FrameData[28] FrameData[29] FrameData[2]
+ FrameData[30] FrameData[31] FrameData[3] FrameData[4] FrameData[5] FrameData[6]
+ FrameData[7] FrameData[8] FrameData[9] FrameData_O[0] FrameData_O[10] FrameData_O[11]
+ FrameData_O[12] FrameData_O[13] FrameData_O[14] FrameData_O[15] FrameData_O[16]
+ FrameData_O[17] FrameData_O[18] FrameData_O[19] FrameData_O[1] FrameData_O[20] FrameData_O[21]
+ FrameData_O[22] FrameData_O[23] FrameData_O[24] FrameData_O[25] FrameData_O[26]
+ FrameData_O[27] FrameData_O[28] FrameData_O[29] FrameData_O[2] FrameData_O[30] FrameData_O[31]
+ FrameData_O[3] FrameData_O[4] FrameData_O[5] FrameData_O[6] FrameData_O[7] FrameData_O[8]
+ FrameData_O[9] FrameStrobe[0] FrameStrobe[10] FrameStrobe[11] FrameStrobe[12] FrameStrobe[13]
+ FrameStrobe[14] FrameStrobe[15] FrameStrobe[16] FrameStrobe[17] FrameStrobe[18]
+ FrameStrobe[19] FrameStrobe[1] FrameStrobe[2] FrameStrobe[3] FrameStrobe[4] FrameStrobe[5]
+ FrameStrobe[6] FrameStrobe[7] FrameStrobe[8] FrameStrobe[9] FrameStrobe_O[0] FrameStrobe_O[10]
+ FrameStrobe_O[11] FrameStrobe_O[12] FrameStrobe_O[13] FrameStrobe_O[14] FrameStrobe_O[15]
+ FrameStrobe_O[16] FrameStrobe_O[17] FrameStrobe_O[18] FrameStrobe_O[19] FrameStrobe_O[1]
+ FrameStrobe_O[2] FrameStrobe_O[3] FrameStrobe_O[4] FrameStrobe_O[5] FrameStrobe_O[6]
+ FrameStrobe_O[7] FrameStrobe_O[8] FrameStrobe_O[9] N1BEG[0] N1BEG[1] N1BEG[2] N1BEG[3]
+ N1END[0] N1END[1] N1END[2] N1END[3] N2BEG[0] N2BEG[1] N2BEG[2] N2BEG[3] N2BEG[4]
+ N2BEG[5] N2BEG[6] N2BEG[7] N2BEGb[0] N2BEGb[1] N2BEGb[2] N2BEGb[3] N2BEGb[4] N2BEGb[5]
+ N2BEGb[6] N2BEGb[7] N2END[0] N2END[1] N2END[2] N2END[3] N2END[4] N2END[5] N2END[6]
+ N2END[7] N2MID[0] N2MID[1] N2MID[2] N2MID[3] N2MID[4] N2MID[5] N2MID[6] N2MID[7]
+ N4BEG[0] N4BEG[10] N4BEG[11] N4BEG[12] N4BEG[13] N4BEG[14] N4BEG[15] N4BEG[1] N4BEG[2]
+ N4BEG[3] N4BEG[4] N4BEG[5] N4BEG[6] N4BEG[7] N4BEG[8] N4BEG[9] N4END[0] N4END[10]
+ N4END[11] N4END[12] N4END[13] N4END[14] N4END[15] N4END[1] N4END[2] N4END[3] N4END[4]
+ N4END[5] N4END[6] N4END[7] N4END[8] N4END[9] NN4BEG[0] NN4BEG[10] NN4BEG[11] NN4BEG[12]
+ NN4BEG[13] NN4BEG[14] NN4BEG[15] NN4BEG[1] NN4BEG[2] NN4BEG[3] NN4BEG[4] NN4BEG[5]
+ NN4BEG[6] NN4BEG[7] NN4BEG[8] NN4BEG[9] NN4END[0] NN4END[10] NN4END[11] NN4END[12]
+ NN4END[13] NN4END[14] NN4END[15] NN4END[1] NN4END[2] NN4END[3] NN4END[4] NN4END[5]
+ NN4END[6] NN4END[7] NN4END[8] NN4END[9] S1BEG[0] S1BEG[1] S1BEG[2] S1BEG[3] S1END[0]
+ S1END[1] S1END[2] S1END[3] S2BEG[0] S2BEG[1] S2BEG[2] S2BEG[3] S2BEG[4] S2BEG[5]
+ S2BEG[6] S2BEG[7] S2BEGb[0] S2BEGb[1] S2BEGb[2] S2BEGb[3] S2BEGb[4] S2BEGb[5] S2BEGb[6]
+ S2BEGb[7] S2END[0] S2END[1] S2END[2] S2END[3] S2END[4] S2END[5] S2END[6] S2END[7]
+ S2MID[0] S2MID[1] S2MID[2] S2MID[3] S2MID[4] S2MID[5] S2MID[6] S2MID[7] S4BEG[0]
+ S4BEG[10] S4BEG[11] S4BEG[12] S4BEG[13] S4BEG[14] S4BEG[15] S4BEG[1] S4BEG[2] S4BEG[3]
+ S4BEG[4] S4BEG[5] S4BEG[6] S4BEG[7] S4BEG[8] S4BEG[9] S4END[0] S4END[10] S4END[11]
+ S4END[12] S4END[13] S4END[14] S4END[15] S4END[1] S4END[2] S4END[3] S4END[4] S4END[5]
+ S4END[6] S4END[7] S4END[8] S4END[9] SS4BEG[0] SS4BEG[10] SS4BEG[11] SS4BEG[12] SS4BEG[13]
+ SS4BEG[14] SS4BEG[15] SS4BEG[1] SS4BEG[2] SS4BEG[3] SS4BEG[4] SS4BEG[5] SS4BEG[6]
+ SS4BEG[7] SS4BEG[8] SS4BEG[9] SS4END[0] SS4END[10] SS4END[11] SS4END[12] SS4END[13]
+ SS4END[14] SS4END[15] SS4END[1] SS4END[2] SS4END[3] SS4END[4] SS4END[5] SS4END[6]
+ SS4END[7] SS4END[8] SS4END[9] UserCLK UserCLKo VGND VPWR W1BEG[0] W1BEG[1] W1BEG[2]
+ W1BEG[3] W1END[0] W1END[1] W1END[2] W1END[3] W2BEG[0] W2BEG[1] W2BEG[2] W2BEG[3]
+ W2BEG[4] W2BEG[5] W2BEG[6] W2BEG[7] W2BEGb[0] W2BEGb[1] W2BEGb[2] W2BEGb[3] W2BEGb[4]
+ W2BEGb[5] W2BEGb[6] W2BEGb[7] W2END[0] W2END[1] W2END[2] W2END[3] W2END[4] W2END[5]
+ W2END[6] W2END[7] W2MID[0] W2MID[1] W2MID[2] W2MID[3] W2MID[4] W2MID[5] W2MID[6]
+ W2MID[7] W6BEG[0] W6BEG[10] W6BEG[11] W6BEG[1] W6BEG[2] W6BEG[3] W6BEG[4] W6BEG[5]
+ W6BEG[6] W6BEG[7] W6BEG[8] W6BEG[9] W6END[0] W6END[10] W6END[11] W6END[1] W6END[2]
+ W6END[3] W6END[4] W6END[5] W6END[6] W6END[7] W6END[8] W6END[9] WW4BEG[0] WW4BEG[10]
+ WW4BEG[11] WW4BEG[12] WW4BEG[13] WW4BEG[14] WW4BEG[15] WW4BEG[1] WW4BEG[2] WW4BEG[3]
+ WW4BEG[4] WW4BEG[5] WW4BEG[6] WW4BEG[7] WW4BEG[8] WW4BEG[9] WW4END[0] WW4END[10]
+ WW4END[11] WW4END[12] WW4END[13] WW4END[14] WW4END[15] WW4END[1] WW4END[2] WW4END[3]
+ WW4END[4] WW4END[5] WW4END[6] WW4END[7] WW4END[8] WW4END[9]
XFILLER_79_391 VGND VGND VPWR VPWR sky130_fd_sc_hd__fill_1
X_2106_ net559 net609 _0935_ VGND VGND VPWR VPWR _0024_ sky130_fd_sc_hd__mux2_4
XFILLER_54_247 VGND VGND VPWR VPWR sky130_fd_sc_hd__decap_3
X_2037_ net77 net20 Inst_RegFile_ConfigMem.Inst_frame6_bit0.Q VGND VGND VPWR VPWR
+ _0891_ sky130_fd_sc_hd__mux2_1
XTAP_TAPCELL_ROW_37_478 VGND VPWR sky130_fd_sc_hd__tapvpwrvgnd_1
X_2939_ NN4END[15] VGND VGND VPWR VPWR net278 sky130_fd_sc_hd__clkbuf_2
XTAP_TAPCELL_ROW_20_345 VGND VPWR sky130_fd_sc_hd__tapvpwrvgnd_1
XFILLER_77_15 VGND VGND VPWR VPWR sky130_fd_sc_hd__decap_3
XFILLER_77_317 VGND VGND VPWR VPWR sky130_fd_sc_hd__decap_3
XFILLER_77_48 VGND VGND VPWR VPWR sky130_fd_sc_hd__decap_3
XTAP_TAPCELL_ROW_28_412 VGND VPWR sky130_fd_sc_hd__tapvpwrvgnd_1
XFILLER_45_225 VGND VGND VPWR VPWR sky130_fd_sc_hd__decap_3
XFILLER_45_247 VGND VGND VPWR VPWR sky130_fd_sc_hd__decap_3
XFILLER_13_100 VGND VGND VPWR VPWR sky130_fd_sc_hd__fill_2
XFILLER_26_52 VGND VGND VPWR VPWR sky130_fd_sc_hd__decap_3
XTAP_TAPCELL_ROW_71_757 VGND VPWR sky130_fd_sc_hd__tapvpwrvgnd_1
XFILLER_13_122 VGND VGND VPWR VPWR sky130_fd_sc_hd__decap_3
XFILLER_13_111 VGND VGND VPWR VPWR sky130_fd_sc_hd__fill_1
XFILLER_26_85 VGND VGND VPWR VPWR sky130_fd_sc_hd__decap_3
XFILLER_60_239 VGND VGND VPWR VPWR sky130_fd_sc_hd__decap_3
XFILLER_13_166 VGND VGND VPWR VPWR sky130_fd_sc_hd__fill_2
XFILLER_9_137 VGND VGND VPWR VPWR sky130_fd_sc_hd__decap_3
XFILLER_3_12 VGND VGND VPWR VPWR sky130_fd_sc_hd__decap_3
XFILLER_68_306 VGND VGND VPWR VPWR sky130_fd_sc_hd__fill_2
XFILLER_3_45 VGND VGND VPWR VPWR sky130_fd_sc_hd__decap_3
XFILLER_3_78 VGND VGND VPWR VPWR sky130_fd_sc_hd__decap_3
X_1270_ _0145_ _0173_ _0209_ VGND VGND VPWR VPWR _0210_ sky130_fd_sc_hd__a21o_1
XFILLER_76_383 VGND VGND VPWR VPWR sky130_fd_sc_hd__decap_3
XFILLER_36_225 VGND VGND VPWR VPWR sky130_fd_sc_hd__decap_3
XFILLER_36_247 VGND VGND VPWR VPWR sky130_fd_sc_hd__decap_3
XFILLER_83_91 VGND VGND VPWR VPWR sky130_fd_sc_hd__decap_3
XFILLER_44_280 VGND VGND VPWR VPWR sky130_fd_sc_hd__decap_3
XTAP_TAPCELL_ROW_34_459 VGND VPWR sky130_fd_sc_hd__tapvpwrvgnd_1
X_2724_ net764 net745 VGND VGND VPWR VPWR Inst_RegFile_ConfigMem.Inst_frame0_bit24.Q
+ sky130_fd_sc_hd__dlxtp_1
X_2655_ net770 net725 VGND VGND VPWR VPWR Inst_RegFile_ConfigMem.Inst_frame2_bit19.Q
+ sky130_fd_sc_hd__dlxtp_1
X_1606_ Inst_RegFile_32x4.mem\[4\]\[2\] Inst_RegFile_32x4.mem\[5\]\[2\] net620 VGND
+ VGND VPWR VPWR _0526_ sky130_fd_sc_hd__mux2_1
X_2586_ net775 net715 VGND VGND VPWR VPWR Inst_RegFile_ConfigMem.Inst_frame4_bit14.Q
+ sky130_fd_sc_hd__dlxtp_1
X_1537_ net644 _0460_ VGND VGND VPWR VPWR _0461_ sky130_fd_sc_hd__and2b_1
XFILLER_59_328 VGND VGND VPWR VPWR sky130_fd_sc_hd__decap_3
X_1468_ Inst_RegFile_32x4.mem\[28\]\[0\] Inst_RegFile_32x4.mem\[29\]\[0\] net624 VGND
+ VGND VPWR VPWR _0395_ sky130_fd_sc_hd__mux2_1
XFILLER_86_169 VGND VGND VPWR VPWR sky130_fd_sc_hd__fill_2
X_1399_ net59 net67 net2 net10 Inst_RegFile_ConfigMem.Inst_frame3_bit16.Q Inst_RegFile_ConfigMem.Inst_frame3_bit17.Q
+ VGND VGND VPWR VPWR _0331_ sky130_fd_sc_hd__mux4_2
XFILLER_67_361 VGND VGND VPWR VPWR sky130_fd_sc_hd__fill_1
XFILLER_67_383 VGND VGND VPWR VPWR sky130_fd_sc_hd__decap_3
XFILLER_27_225 VGND VGND VPWR VPWR sky130_fd_sc_hd__decap_3
XFILLER_82_342 VGND VGND VPWR VPWR sky130_fd_sc_hd__decap_3
XFILLER_82_375 VGND VGND VPWR VPWR sky130_fd_sc_hd__decap_3
XFILLER_63_17 VGND VGND VPWR VPWR sky130_fd_sc_hd__decap_3
XFILLER_42_206 VGND VGND VPWR VPWR sky130_fd_sc_hd__fill_2
XFILLER_10_114 VGND VGND VPWR VPWR sky130_fd_sc_hd__fill_1
XFILLER_10_103 VGND VGND VPWR VPWR sky130_fd_sc_hd__fill_2
XFILLER_50_294 VGND VGND VPWR VPWR sky130_fd_sc_hd__decap_3
XFILLER_10_147 VGND VGND VPWR VPWR sky130_fd_sc_hd__decap_3
XFILLER_10_136 VGND VGND VPWR VPWR sky130_fd_sc_hd__decap_3
Xhold170 Inst_RegFile_32x4.mem\[9\]\[0\] VGND VGND VPWR VPWR net562 sky130_fd_sc_hd__dlygate4sd3_1
XFILLER_2_324 VGND VGND VPWR VPWR sky130_fd_sc_hd__decap_3
Xhold181 Inst_RegFile_32x4.mem\[23\]\[0\] VGND VGND VPWR VPWR net573 sky130_fd_sc_hd__dlygate4sd3_1
Xfanout650 AD3 VGND VGND VPWR VPWR net650 sky130_fd_sc_hd__buf_8
Xfanout683 net684 VGND VGND VPWR VPWR net683 sky130_fd_sc_hd__clkbuf_4
Xfanout672 net674 VGND VGND VPWR VPWR net672 sky130_fd_sc_hd__buf_2
Xfanout661 AD1 VGND VGND VPWR VPWR net661 sky130_fd_sc_hd__buf_8
Xfanout694 net695 VGND VGND VPWR VPWR net694 sky130_fd_sc_hd__clkbuf_2
XFILLER_73_320 VGND VGND VPWR VPWR sky130_fd_sc_hd__decap_3
XFILLER_18_203 VGND VGND VPWR VPWR sky130_fd_sc_hd__decap_3
XTAP_TAPCELL_ROW_84_860 VGND VPWR sky130_fd_sc_hd__tapvpwrvgnd_1
XFILLER_73_364 VGND VGND VPWR VPWR sky130_fd_sc_hd__decap_3
XFILLER_18_269 VGND VGND VPWR VPWR sky130_fd_sc_hd__decap_3
XFILLER_26_280 VGND VGND VPWR VPWR sky130_fd_sc_hd__decap_3
XFILLER_53_72 VGND VGND VPWR VPWR sky130_fd_sc_hd__decap_3
X_2440_ net46 net697 VGND VGND VPWR VPWR Inst_RegFile_ConfigMem.Inst_frame9_bit28.Q
+ sky130_fd_sc_hd__dlxtp_1
X_2371_ net765 net736 VGND VGND VPWR VPWR Inst_RegFile_ConfigMem.Inst_frame11_bit23.Q
+ sky130_fd_sc_hd__dlxtp_1
X_1322_ _0244_ _0234_ _0259_ _0209_ VGND VGND VPWR VPWR Inst_RegFile_32x4.AD_comb\[1\]
+ sky130_fd_sc_hd__a2bb2o_4
X_1253_ net117 net674 net660 net656 Inst_RegFile_ConfigMem.Inst_frame3_bit24.Q Inst_RegFile_ConfigMem.Inst_frame3_bit25.Q
+ VGND VGND VPWR VPWR _0194_ sky130_fd_sc_hd__mux4_1
XFILLER_76_191 VGND VGND VPWR VPWR sky130_fd_sc_hd__decap_3
X_1184_ Inst_RegFile_ConfigMem.Inst_frame8_bit14.Q _0128_ VGND VGND VPWR VPWR _0129_
+ sky130_fd_sc_hd__nand2_1
XTAP_TAPCELL_ROW_47_562 VGND VPWR sky130_fd_sc_hd__tapvpwrvgnd_1
X_2707_ net749 net743 VGND VGND VPWR VPWR Inst_RegFile_ConfigMem.Inst_frame0_bit7.Q
+ sky130_fd_sc_hd__dlxtp_1
Xoutput231 net231 VGND VGND VPWR VPWR FrameStrobe_O[1] sky130_fd_sc_hd__buf_2
Xoutput220 net220 VGND VGND VPWR VPWR FrameStrobe_O[0] sky130_fd_sc_hd__buf_2
Xoutput242 net242 VGND VGND VPWR VPWR N1BEG[2] sky130_fd_sc_hd__buf_8
Xoutput253 net253 VGND VGND VPWR VPWR N2BEGb[1] sky130_fd_sc_hd__buf_2
X_2638_ net757 net724 VGND VGND VPWR VPWR Inst_RegFile_ConfigMem.Inst_frame2_bit2.Q
+ sky130_fd_sc_hd__dlxtp_1
Xoutput286 net286 VGND VGND VPWR VPWR NN4BEG[4] sky130_fd_sc_hd__buf_2
Xoutput275 net275 VGND VGND VPWR VPWR N4BEG[9] sky130_fd_sc_hd__buf_2
Xoutput264 net264 VGND VGND VPWR VPWR N4BEG[13] sky130_fd_sc_hd__buf_2
X_2569_ net758 net713 VGND VGND VPWR VPWR Inst_RegFile_ConfigMem.Inst_frame5_bit29.Q
+ sky130_fd_sc_hd__dlxtp_1
Xoutput297 net297 VGND VGND VPWR VPWR S2BEG[1] sky130_fd_sc_hd__buf_6
XFILLER_74_139 VGND VGND VPWR VPWR sky130_fd_sc_hd__fill_1
XFILLER_74_106 VGND VGND VPWR VPWR sky130_fd_sc_hd__decap_3
XFILLER_67_180 VGND VGND VPWR VPWR sky130_fd_sc_hd__decap_3
XFILLER_82_150 VGND VGND VPWR VPWR sky130_fd_sc_hd__decap_3
XFILLER_70_312 VGND VGND VPWR VPWR sky130_fd_sc_hd__decap_3
XTAP_TAPCELL_ROW_2_198 VGND VPWR sky130_fd_sc_hd__tapvpwrvgnd_1
XFILLER_55_353 VGND VGND VPWR VPWR sky130_fd_sc_hd__fill_1
XTAP_TAPCELL_ROW_81_830 VGND VPWR sky130_fd_sc_hd__tapvpwrvgnd_1
XFILLER_70_345 VGND VGND VPWR VPWR sky130_fd_sc_hd__decap_3
XFILLER_30_209 VGND VGND VPWR VPWR sky130_fd_sc_hd__decap_3
XFILLER_23_272 VGND VGND VPWR VPWR sky130_fd_sc_hd__decap_3
XFILLER_7_405 VGND VGND VPWR VPWR sky130_fd_sc_hd__decap_3
XFILLER_2_121 VGND VGND VPWR VPWR sky130_fd_sc_hd__decap_3
XFILLER_2_165 VGND VGND VPWR VPWR sky130_fd_sc_hd__decap_3
XFILLER_78_445 VGND VGND VPWR VPWR sky130_fd_sc_hd__decap_3
XFILLER_0_57 VGND VGND VPWR VPWR sky130_fd_sc_hd__fill_1
XFILLER_64_71 VGND VGND VPWR VPWR sky130_fd_sc_hd__fill_1
XFILLER_61_334 VGND VGND VPWR VPWR sky130_fd_sc_hd__fill_2
X_1940_ _0818_ _0817_ _0819_ Inst_RegFile_ConfigMem.Inst_frame12_bit24.Q VGND VGND
+ VPWR VPWR _0820_ sky130_fd_sc_hd__a22o_1
XFILLER_14_250 VGND VGND VPWR VPWR sky130_fd_sc_hd__fill_2
X_1871_ _0756_ _1022_ _0758_ Inst_RegFile_ConfigMem.Inst_frame11_bit27.Q VGND VGND
+ VPWR VPWR _0759_ sky130_fd_sc_hd__o211a_1
X_2423_ net778 net695 VGND VGND VPWR VPWR Inst_RegFile_ConfigMem.Inst_frame9_bit11.Q
+ sky130_fd_sc_hd__dlxtp_1
XFILLER_69_445 VGND VGND VPWR VPWR sky130_fd_sc_hd__decap_3
X_2354_ net54 net735 VGND VGND VPWR VPWR Inst_RegFile_ConfigMem.Inst_frame11_bit6.Q
+ sky130_fd_sc_hd__dlxtp_1
X_1305_ net662 _0242_ VGND VGND VPWR VPWR _0243_ sky130_fd_sc_hd__nand2_1
XFILLER_84_437 VGND VGND VPWR VPWR sky130_fd_sc_hd__decap_3
X_2285_ clknet_4_8_0_UserCLK_regs _0043_ VGND VGND VPWR VPWR Inst_RegFile_32x4.mem\[22\]\[3\]
+ sky130_fd_sc_hd__dfxtp_1
XFILLER_56_106 VGND VGND VPWR VPWR sky130_fd_sc_hd__decap_3
X_1236_ Inst_RegFile_32x4.mem\[4\]\[0\] Inst_RegFile_32x4.mem\[5\]\[0\] net394 VGND
+ VGND VPWR VPWR _0178_ sky130_fd_sc_hd__mux2_1
XFILLER_37_320 VGND VGND VPWR VPWR sky130_fd_sc_hd__decap_3
X_1167_ Inst_RegFile_ConfigMem.Inst_frame0_bit19.Q _1054_ _1055_ _1058_ VGND VGND
+ VPWR VPWR _1059_ sky130_fd_sc_hd__a31o_1
XFILLER_64_172 VGND VGND VPWR VPWR sky130_fd_sc_hd__decap_3
XFILLER_52_312 VGND VGND VPWR VPWR sky130_fd_sc_hd__fill_2
XFILLER_12_209 VGND VGND VPWR VPWR sky130_fd_sc_hd__decap_3
X_1098_ Inst_RegFile_ConfigMem.Inst_frame3_bit15.Q VGND VGND VPWR VPWR _0992_ sky130_fd_sc_hd__inv_2
XFILLER_20_231 VGND VGND VPWR VPWR sky130_fd_sc_hd__decap_3
XFILLER_20_253 VGND VGND VPWR VPWR sky130_fd_sc_hd__decap_3
XFILLER_60_29 VGND VGND VPWR VPWR sky130_fd_sc_hd__decap_3
XFILLER_4_419 VGND VGND VPWR VPWR sky130_fd_sc_hd__fill_1
XFILLER_69_16 VGND VGND VPWR VPWR sky130_fd_sc_hd__decap_3
XFILLER_85_15 VGND VGND VPWR VPWR sky130_fd_sc_hd__decap_3
XFILLER_75_426 VGND VGND VPWR VPWR sky130_fd_sc_hd__decap_3
XTAP_TAPCELL_ROW_58_646 VGND VPWR sky130_fd_sc_hd__tapvpwrvgnd_1
XFILLER_18_97 VGND VGND VPWR VPWR sky130_fd_sc_hd__fill_2
XFILLER_55_194 VGND VGND VPWR VPWR sky130_fd_sc_hd__fill_2
XFILLER_70_153 VGND VGND VPWR VPWR sky130_fd_sc_hd__decap_3
XTAP_TAPCELL_ROW_41_513 VGND VPWR sky130_fd_sc_hd__tapvpwrvgnd_1
XFILLER_70_197 VGND VGND VPWR VPWR sky130_fd_sc_hd__decap_3
XFILLER_34_85 VGND VGND VPWR VPWR sky130_fd_sc_hd__decap_3
XFILLER_11_275 VGND VGND VPWR VPWR sky130_fd_sc_hd__decap_3
XFILLER_7_202 VGND VGND VPWR VPWR sky130_fd_sc_hd__decap_3
XFILLER_7_246 VGND VGND VPWR VPWR sky130_fd_sc_hd__decap_3
XFILLER_7_279 VGND VGND VPWR VPWR sky130_fd_sc_hd__fill_1
XFILLER_50_73 VGND VGND VPWR VPWR sky130_fd_sc_hd__decap_3
XFILLER_78_253 VGND VGND VPWR VPWR sky130_fd_sc_hd__decap_3
XFILLER_22_7 VGND VGND VPWR VPWR sky130_fd_sc_hd__fill_2
XFILLER_59_93 VGND VGND VPWR VPWR sky130_fd_sc_hd__decap_3
XFILLER_38_117 VGND VGND VPWR VPWR sky130_fd_sc_hd__decap_3
XFILLER_78_297 VGND VGND VPWR VPWR sky130_fd_sc_hd__decap_3
X_2070_ _0884_ _0919_ VGND VGND VPWR VPWR _0920_ sky130_fd_sc_hd__nor2_4
XFILLER_81_429 VGND VGND VPWR VPWR sky130_fd_sc_hd__decap_3
XFILLER_19_375 VGND VGND VPWR VPWR sky130_fd_sc_hd__fill_1
XFILLER_53_109 VGND VGND VPWR VPWR sky130_fd_sc_hd__decap_3
XFILLER_46_194 VGND VGND VPWR VPWR sky130_fd_sc_hd__fill_2
XFILLER_61_153 VGND VGND VPWR VPWR sky130_fd_sc_hd__decap_3
X_2972_ S4END[12] VGND VGND VPWR VPWR net326 sky130_fd_sc_hd__clkbuf_2
XFILLER_34_378 VGND VGND VPWR VPWR sky130_fd_sc_hd__fill_2
X_1923_ net402 _0804_ Inst_RegFile_ConfigMem.Inst_frame12_bit29.Q VGND VGND VPWR VPWR
+ _0805_ sky130_fd_sc_hd__mux2_2
XFILLER_61_197 VGND VGND VPWR VPWR sky130_fd_sc_hd__fill_2
X_1854_ Inst_RegFile_ConfigMem.Inst_frame10_bit13.Q _0742_ VGND VGND VPWR VPWR _0743_
+ sky130_fd_sc_hd__nand2_1
XTAP_TAPCELL_ROW_12_281 VGND VPWR sky130_fd_sc_hd__tapvpwrvgnd_1
X_1785_ net74 net102 net17 Inst_RegFile_switch_matrix.JS2BEG4 Inst_RegFile_ConfigMem.Inst_frame7_bit13.Q
+ Inst_RegFile_ConfigMem.Inst_frame7_bit12.Q VGND VGND VPWR VPWR _0683_ sky130_fd_sc_hd__mux4_2
X_2406_ net762 net739 VGND VGND VPWR VPWR Inst_RegFile_ConfigMem.Inst_frame10_bit26.Q
+ sky130_fd_sc_hd__dlxtp_1