*SPEF "ieee 1481-1999"
*DESIGN "N_term_single2"
*DATE "11:52:55 Thursday May 08, 2025"
*VENDOR "The OpenROAD Project"
*PROGRAM "OpenROAD"
*VERSION "87af90f72f3f9be1fdfa1d886f0dd8d8b8f34694"
*DESIGN_FLOW "NAME_SCOPE LOCAL" "PIN_CAP NONE"
*DIVIDER /
*DELIMITER :
*BUS_DELIMITER []
*T_UNIT 1 NS
*C_UNIT 1 PF
*R_UNIT 1 OHM
*L_UNIT 1 HENRY

*NAME_MAP
*1 FrameData[0]
*2 FrameData[10]
*3 FrameData[11]
*4 FrameData[12]
*5 FrameData[13]
*6 FrameData[14]
*7 FrameData[15]
*8 FrameData[16]
*9 FrameData[17]
*10 FrameData[18]
*11 FrameData[19]
*12 FrameData[1]
*13 FrameData[20]
*14 FrameData[21]
*15 FrameData[22]
*16 FrameData[23]
*17 FrameData[24]
*18 FrameData[25]
*19 FrameData[26]
*20 FrameData[27]
*21 FrameData[28]
*22 FrameData[29]
*23 FrameData[2]
*24 FrameData[30]
*25 FrameData[31]
*26 FrameData[3]
*27 FrameData[4]
*28 FrameData[5]
*29 FrameData[6]
*30 FrameData[7]
*31 FrameData[8]
*32 FrameData[9]
*33 FrameData_O[0]
*34 FrameData_O[10]
*35 FrameData_O[11]
*36 FrameData_O[12]
*37 FrameData_O[13]
*38 FrameData_O[14]
*39 FrameData_O[15]
*40 FrameData_O[16]
*41 FrameData_O[17]
*42 FrameData_O[18]
*43 FrameData_O[19]
*44 FrameData_O[1]
*45 FrameData_O[20]
*46 FrameData_O[21]
*47 FrameData_O[22]
*48 FrameData_O[23]
*49 FrameData_O[24]
*50 FrameData_O[25]
*51 FrameData_O[26]
*52 FrameData_O[27]
*53 FrameData_O[28]
*54 FrameData_O[29]
*55 FrameData_O[2]
*56 FrameData_O[30]
*57 FrameData_O[31]
*58 FrameData_O[3]
*59 FrameData_O[4]
*60 FrameData_O[5]
*61 FrameData_O[6]
*62 FrameData_O[7]
*63 FrameData_O[8]
*64 FrameData_O[9]
*65 FrameStrobe[0]
*66 FrameStrobe[10]
*67 FrameStrobe[11]
*68 FrameStrobe[12]
*69 FrameStrobe[13]
*70 FrameStrobe[14]
*71 FrameStrobe[15]
*72 FrameStrobe[16]
*73 FrameStrobe[17]
*74 FrameStrobe[18]
*75 FrameStrobe[19]
*76 FrameStrobe[1]
*77 FrameStrobe[2]
*78 FrameStrobe[3]
*79 FrameStrobe[4]
*80 FrameStrobe[5]
*81 FrameStrobe[6]
*82 FrameStrobe[7]
*83 FrameStrobe[8]
*84 FrameStrobe[9]
*85 FrameStrobe_O[0]
*86 FrameStrobe_O[10]
*87 FrameStrobe_O[11]
*88 FrameStrobe_O[12]
*89 FrameStrobe_O[13]
*90 FrameStrobe_O[14]
*91 FrameStrobe_O[15]
*92 FrameStrobe_O[16]
*93 FrameStrobe_O[17]
*94 FrameStrobe_O[18]
*95 FrameStrobe_O[19]
*96 FrameStrobe_O[1]
*97 FrameStrobe_O[2]
*98 FrameStrobe_O[3]
*99 FrameStrobe_O[4]
*100 FrameStrobe_O[5]
*101 FrameStrobe_O[6]
*102 FrameStrobe_O[7]
*103 FrameStrobe_O[8]
*104 FrameStrobe_O[9]
*105 N1END[0]
*106 N1END[1]
*107 N1END[2]
*108 N1END[3]
*109 N2END[0]
*110 N2END[1]
*111 N2END[2]
*112 N2END[3]
*113 N2END[4]
*114 N2END[5]
*115 N2END[6]
*116 N2END[7]
*117 N2MID[0]
*118 N2MID[1]
*119 N2MID[2]
*120 N2MID[3]
*121 N2MID[4]
*122 N2MID[5]
*123 N2MID[6]
*124 N2MID[7]
*125 N4END[0]
*126 N4END[10]
*127 N4END[11]
*128 N4END[12]
*129 N4END[13]
*130 N4END[14]
*131 N4END[15]
*132 N4END[1]
*133 N4END[2]
*134 N4END[3]
*135 N4END[4]
*136 N4END[5]
*137 N4END[6]
*138 N4END[7]
*139 N4END[8]
*140 N4END[9]
*141 NN4END[0]
*142 NN4END[10]
*143 NN4END[11]
*144 NN4END[12]
*145 NN4END[13]
*146 NN4END[14]
*147 NN4END[15]
*148 NN4END[1]
*149 NN4END[2]
*150 NN4END[3]
*151 NN4END[4]
*152 NN4END[5]
*153 NN4END[6]
*154 NN4END[7]
*155 NN4END[8]
*156 NN4END[9]
*157 S1BEG[0]
*158 S1BEG[1]
*159 S1BEG[2]
*160 S1BEG[3]
*161 S2BEG[0]
*162 S2BEG[1]
*163 S2BEG[2]
*164 S2BEG[3]
*165 S2BEG[4]
*166 S2BEG[5]
*167 S2BEG[6]
*168 S2BEG[7]
*169 S2BEGb[0]
*170 S2BEGb[1]
*171 S2BEGb[2]
*172 S2BEGb[3]
*173 S2BEGb[4]
*174 S2BEGb[5]
*175 S2BEGb[6]
*176 S2BEGb[7]
*177 S4BEG[0]
*178 S4BEG[10]
*179 S4BEG[11]
*180 S4BEG[12]
*181 S4BEG[13]
*182 S4BEG[14]
*183 S4BEG[15]
*184 S4BEG[1]
*185 S4BEG[2]
*186 S4BEG[3]
*187 S4BEG[4]
*188 S4BEG[5]
*189 S4BEG[6]
*190 S4BEG[7]
*191 S4BEG[8]
*192 S4BEG[9]
*193 SS4BEG[0]
*194 SS4BEG[10]
*195 SS4BEG[11]
*196 SS4BEG[12]
*197 SS4BEG[13]
*198 SS4BEG[14]
*199 SS4BEG[15]
*200 SS4BEG[1]
*201 SS4BEG[2]
*202 SS4BEG[3]
*203 SS4BEG[4]
*204 SS4BEG[5]
*205 SS4BEG[6]
*206 SS4BEG[7]
*207 SS4BEG[8]
*208 SS4BEG[9]
*209 UserCLK
*210 UserCLKo
*213 net1
*214 net10
*215 net100
*216 net101
*217 net102
*218 net103
*219 net104
*220 net105
*221 net11
*222 net12
*223 net13
*224 net14
*225 net15
*226 net16
*227 net17
*228 net18
*229 net19
*230 net2
*231 net20
*232 net21
*233 net22
*234 net23
*235 net24
*236 net25
*237 net26
*238 net27
*239 net28
*240 net29
*241 net3
*242 net30
*243 net31
*244 net32
*245 net33
*246 net34
*247 net35
*248 net36
*249 net37
*250 net38
*251 net39
*252 net4
*253 net40
*254 net41
*255 net42
*256 net43
*257 net44
*258 net45
*259 net46
*260 net47
*261 net48
*262 net49
*263 net5
*264 net50
*265 net51
*266 net52
*267 net53
*268 net54
*269 net55
*270 net56
*271 net57
*272 net58
*273 net59
*274 net6
*275 net60
*276 net61
*277 net62
*278 net63
*279 net64
*280 net65
*281 net66
*282 net67
*283 net68
*284 net69
*285 net7
*286 net70
*287 net71
*288 net72
*289 net73
*290 net74
*291 net75
*292 net76
*293 net77
*294 net78
*295 net79
*296 net8
*297 net80
*298 net81
*299 net82
*300 net83
*301 net84
*302 net85
*303 net86
*304 net87
*305 net88
*306 net89
*307 net9
*308 net90
*309 net91
*310 net92
*311 net93
*312 net94
*313 net95
*314 net96
*315 net97
*316 net98
*317 net99
*318 ANTENNA_1
*319 ANTENNA_10
*320 ANTENNA_11
*321 ANTENNA_12
*322 ANTENNA_13
*323 ANTENNA_14
*324 ANTENNA_15
*325 ANTENNA_16
*326 ANTENNA_17
*327 ANTENNA_18
*328 ANTENNA_19
*329 ANTENNA_2
*330 ANTENNA_20
*331 ANTENNA_21
*332 ANTENNA_22
*333 ANTENNA_23
*334 ANTENNA_24
*335 ANTENNA_25
*336 ANTENNA_26
*337 ANTENNA_3
*338 ANTENNA_4
*339 ANTENNA_5
*340 ANTENNA_6
*341 ANTENNA_7
*342 ANTENNA_8
*343 ANTENNA_9
*344 FILLER_0_100
*345 FILLER_0_103
*346 FILLER_0_106
*347 FILLER_0_109
*348 FILLER_0_113
*349 FILLER_0_116
*350 FILLER_0_119
*351 FILLER_0_12
*352 FILLER_0_122
*353 FILLER_0_125
*354 FILLER_0_128
*355 FILLER_0_131
*356 FILLER_0_134
*357 FILLER_0_137
*358 FILLER_0_141
*359 FILLER_0_144
*360 FILLER_0_147
*361 FILLER_0_150
*362 FILLER_0_153
*363 FILLER_0_156
*364 FILLER_0_159
*365 FILLER_0_162
*366 FILLER_0_165
*367 FILLER_0_169
*368 FILLER_0_172
*369 FILLER_0_175
*370 FILLER_0_178
*371 FILLER_0_181
*372 FILLER_0_184
*373 FILLER_0_187
*374 FILLER_0_19
*375 FILLER_0_190
*376 FILLER_0_193
*377 FILLER_0_197
*378 FILLER_0_22
*379 FILLER_0_225
*380 FILLER_0_25
*381 FILLER_0_250
*382 FILLER_0_277
*383 FILLER_0_29
*384 FILLER_0_3
*385 FILLER_0_305
*386 FILLER_0_32
*387 FILLER_0_333
*388 FILLER_0_35
*389 FILLER_0_361
*390 FILLER_0_38
*391 FILLER_0_389
*392 FILLER_0_41
*393 FILLER_0_413
*394 FILLER_0_416
*395 FILLER_0_419
*396 FILLER_0_421
*397 FILLER_0_424
*398 FILLER_0_427
*399 FILLER_0_430
*400 FILLER_0_433
*401 FILLER_0_436
*402 FILLER_0_439
*403 FILLER_0_44
*404 FILLER_0_442
*405 FILLER_0_445
*406 FILLER_0_47
*407 FILLER_0_50
*408 FILLER_0_53
*409 FILLER_0_57
*410 FILLER_0_6
*411 FILLER_0_60
*412 FILLER_0_63
*413 FILLER_0_66
*414 FILLER_0_69
*415 FILLER_0_72
*416 FILLER_0_75
*417 FILLER_0_78
*418 FILLER_0_81
*419 FILLER_0_85
*420 FILLER_0_88
*421 FILLER_0_9
*422 FILLER_0_91
*423 FILLER_0_94
*424 FILLER_0_97
*425 FILLER_10_102
*426 FILLER_10_105
*427 FILLER_10_108
*428 FILLER_10_111
*429 FILLER_10_114
*430 FILLER_10_117
*431 FILLER_10_12
*432 FILLER_10_124
*433 FILLER_10_127
*434 FILLER_10_130
*435 FILLER_10_133
*436 FILLER_10_136
*437 FILLER_10_139
*438 FILLER_10_144
*439 FILLER_10_147
*440 FILLER_10_150
*441 FILLER_10_153
*442 FILLER_10_156
*443 FILLER_10_159
*444 FILLER_10_162
*445 FILLER_10_165
*446 FILLER_10_168
*447 FILLER_10_171
*448 FILLER_10_174
*449 FILLER_10_177
*450 FILLER_10_180
*451 FILLER_10_183
*452 FILLER_10_186
*453 FILLER_10_189
*454 FILLER_10_192
*455 FILLER_10_195
*456 FILLER_10_197
*457 FILLER_10_200
*458 FILLER_10_203
*459 FILLER_10_206
*460 FILLER_10_209
*461 FILLER_10_212
*462 FILLER_10_215
*463 FILLER_10_218
*464 FILLER_10_221
*465 FILLER_10_224
*466 FILLER_10_227
*467 FILLER_10_230
*468 FILLER_10_233
*469 FILLER_10_236
*470 FILLER_10_239
*471 FILLER_10_242
*472 FILLER_10_247
*473 FILLER_10_250
*474 FILLER_10_253
*475 FILLER_10_256
*476 FILLER_10_259
*477 FILLER_10_26
*478 FILLER_10_262
*479 FILLER_10_265
*480 FILLER_10_268
*481 FILLER_10_271
*482 FILLER_10_274
*483 FILLER_10_277
*484 FILLER_10_280
*485 FILLER_10_283
*486 FILLER_10_286
*487 FILLER_10_289
*488 FILLER_10_29
*489 FILLER_10_292
*490 FILLER_10_295
*491 FILLER_10_298
*492 FILLER_10_3
*493 FILLER_10_301
*494 FILLER_10_304
*495 FILLER_10_307
*496 FILLER_10_309
*497 FILLER_10_312
*498 FILLER_10_315
*499 FILLER_10_318
*500 FILLER_10_32
*501 FILLER_10_321
*502 FILLER_10_324
*503 FILLER_10_327
*504 FILLER_10_330
*505 FILLER_10_333
*506 FILLER_10_336
*507 FILLER_10_339
*508 FILLER_10_343
*509 FILLER_10_346
*510 FILLER_10_349
*511 FILLER_10_35
*512 FILLER_10_352
*513 FILLER_10_355
*514 FILLER_10_358
*515 FILLER_10_361
*516 FILLER_10_368
*517 FILLER_10_371
*518 FILLER_10_38
*519 FILLER_10_380
*520 FILLER_10_383
*521 FILLER_10_388
*522 FILLER_10_391
*523 FILLER_10_394
*524 FILLER_10_397
*525 FILLER_10_400
*526 FILLER_10_405
*527 FILLER_10_408
*528 FILLER_10_41
*529 FILLER_10_411
*530 FILLER_10_414
*531 FILLER_10_418
*532 FILLER_10_424
*533 FILLER_10_427
*534 FILLER_10_433
*535 FILLER_10_436
*536 FILLER_10_44
*537 FILLER_10_47
*538 FILLER_10_50
*539 FILLER_10_57
*540 FILLER_10_6
*541 FILLER_10_60
*542 FILLER_10_63
*543 FILLER_10_66
*544 FILLER_10_69
*545 FILLER_10_72
*546 FILLER_10_75
*547 FILLER_10_78
*548 FILLER_10_81
*549 FILLER_10_85
*550 FILLER_10_88
*551 FILLER_10_9
*552 FILLER_10_91
*553 FILLER_10_99
*554 FILLER_11_104
*555 FILLER_11_107
*556 FILLER_11_11
*557 FILLER_11_110
*558 FILLER_11_113
*559 FILLER_11_116
*560 FILLER_11_119
*561 FILLER_11_122
*562 FILLER_11_127
*563 FILLER_11_130
*564 FILLER_11_133
*565 FILLER_11_136
*566 FILLER_11_139
*567 FILLER_11_14
*568 FILLER_11_141
*569 FILLER_11_144
*570 FILLER_11_150
*571 FILLER_11_153
*572 FILLER_11_156
*573 FILLER_11_159
*574 FILLER_11_162
*575 FILLER_11_165
*576 FILLER_11_17
*577 FILLER_11_173
*578 FILLER_11_176
*579 FILLER_11_179
*580 FILLER_11_182
*581 FILLER_11_185
*582 FILLER_11_188
*583 FILLER_11_191
*584 FILLER_11_197
*585 FILLER_11_20
*586 FILLER_11_200
*587 FILLER_11_203
*588 FILLER_11_206
*589 FILLER_11_209
*590 FILLER_11_212
*591 FILLER_11_219
*592 FILLER_11_222
*593 FILLER_11_225
*594 FILLER_11_228
*595 FILLER_11_23
*596 FILLER_11_231
*597 FILLER_11_234
*598 FILLER_11_237
*599 FILLER_11_242
*600 FILLER_11_245
*601 FILLER_11_248
*602 FILLER_11_251
*603 FILLER_11_253
*604 FILLER_11_256
*605 FILLER_11_259
*606 FILLER_11_26
*607 FILLER_11_265
*608 FILLER_11_268
*609 FILLER_11_271
*610 FILLER_11_274
*611 FILLER_11_277
*612 FILLER_11_281
*613 FILLER_11_288
*614 FILLER_11_29
*615 FILLER_11_291
*616 FILLER_11_294
*617 FILLER_11_297
*618 FILLER_11_3
*619 FILLER_11_300
*620 FILLER_11_303
*621 FILLER_11_306
*622 FILLER_11_313
*623 FILLER_11_316
*624 FILLER_11_319
*625 FILLER_11_322
*626 FILLER_11_325
*627 FILLER_11_328
*628 FILLER_11_334
*629 FILLER_11_337
*630 FILLER_11_340
*631 FILLER_11_343
*632 FILLER_11_346
*633 FILLER_11_349
*634 FILLER_11_35
*635 FILLER_11_352
*636 FILLER_11_357
*637 FILLER_11_360
*638 FILLER_11_363
*639 FILLER_11_365
*640 FILLER_11_368
*641 FILLER_11_371
*642 FILLER_11_374
*643 FILLER_11_38
*644 FILLER_11_380
*645 FILLER_11_383
*646 FILLER_11_386
*647 FILLER_11_389
*648 FILLER_11_393
*649 FILLER_11_396
*650 FILLER_11_403
*651 FILLER_11_406
*652 FILLER_11_409
*653 FILLER_11_41
*654 FILLER_11_412
*655 FILLER_11_415
*656 FILLER_11_418
*657 FILLER_11_421
*658 FILLER_11_426
*659 FILLER_11_429
*660 FILLER_11_432
*661 FILLER_11_435
*662 FILLER_11_438
*663 FILLER_11_44
*664 FILLER_11_441
*665 FILLER_11_444
*666 FILLER_11_447
*667 FILLER_11_453
*668 FILLER_11_47
*669 FILLER_11_472
*670 FILLER_11_50
*671 FILLER_11_53
*672 FILLER_11_6
*673 FILLER_11_61
*674 FILLER_11_64
*675 FILLER_11_67
*676 FILLER_11_70
*677 FILLER_11_73
*678 FILLER_11_76
*679 FILLER_11_81
*680 FILLER_11_85
*681 FILLER_11_88
*682 FILLER_11_91
*683 FILLER_11_94
*684 FILLER_11_97
*685 FILLER_1_102
*686 FILLER_1_105
*687 FILLER_1_108
*688 FILLER_1_111
*689 FILLER_1_113
*690 FILLER_1_116
*691 FILLER_1_119
*692 FILLER_1_122
*693 FILLER_1_125
*694 FILLER_1_128
*695 FILLER_1_131
*696 FILLER_1_134
*697 FILLER_1_137
*698 FILLER_1_140
*699 FILLER_1_143
*700 FILLER_1_146
*701 FILLER_1_149
*702 FILLER_1_152
*703 FILLER_1_155
*704 FILLER_1_158
*705 FILLER_1_161
*706 FILLER_1_164
*707 FILLER_1_167
*708 FILLER_1_169
*709 FILLER_1_172
*710 FILLER_1_175
*711 FILLER_1_180
*712 FILLER_1_183
*713 FILLER_1_186
*714 FILLER_1_189
*715 FILLER_1_192
*716 FILLER_1_195
*717 FILLER_1_202
*718 FILLER_1_208
*719 FILLER_1_211
*720 FILLER_1_214
*721 FILLER_1_217
*722 FILLER_1_220
*723 FILLER_1_223
*724 FILLER_1_225
*725 FILLER_1_228
*726 FILLER_1_231
*727 FILLER_1_234
*728 FILLER_1_237
*729 FILLER_1_240
*730 FILLER_1_243
*731 FILLER_1_246
*732 FILLER_1_249
*733 FILLER_1_252
*734 FILLER_1_255
*735 FILLER_1_258
*736 FILLER_1_261
*737 FILLER_1_264
*738 FILLER_1_267
*739 FILLER_1_27
*740 FILLER_1_270
*741 FILLER_1_273
*742 FILLER_1_276
*743 FILLER_1_279
*744 FILLER_1_281
*745 FILLER_1_284
*746 FILLER_1_287
*747 FILLER_1_290
*748 FILLER_1_293
*749 FILLER_1_296
*750 FILLER_1_3
*751 FILLER_1_30
*752 FILLER_1_302
*753 FILLER_1_305
*754 FILLER_1_308
*755 FILLER_1_311
*756 FILLER_1_314
*757 FILLER_1_324
*758 FILLER_1_33
*759 FILLER_1_333
*760 FILLER_1_337
*761 FILLER_1_340
*762 FILLER_1_343
*763 FILLER_1_346
*764 FILLER_1_349
*765 FILLER_1_352
*766 FILLER_1_358
*767 FILLER_1_36
*768 FILLER_1_361
*769 FILLER_1_364
*770 FILLER_1_367
*771 FILLER_1_370
*772 FILLER_1_373
*773 FILLER_1_376
*774 FILLER_1_379
*775 FILLER_1_386
*776 FILLER_1_389
*777 FILLER_1_39
*778 FILLER_1_393
*779 FILLER_1_396
*780 FILLER_1_399
*781 FILLER_1_402
*782 FILLER_1_405
*783 FILLER_1_408
*784 FILLER_1_411
*785 FILLER_1_414
*786 FILLER_1_417
*787 FILLER_1_420
*788 FILLER_1_423
*789 FILLER_1_426
*790 FILLER_1_429
*791 FILLER_1_432
*792 FILLER_1_435
*793 FILLER_1_438
*794 FILLER_1_48
*795 FILLER_1_51
*796 FILLER_1_54
*797 FILLER_1_57
*798 FILLER_1_6
*799 FILLER_1_60
*800 FILLER_1_63
*801 FILLER_1_66
*802 FILLER_1_69
*803 FILLER_1_72
*804 FILLER_1_75
*805 FILLER_1_78
*806 FILLER_1_81
*807 FILLER_1_84
*808 FILLER_1_87
*809 FILLER_1_9
*810 FILLER_1_90
*811 FILLER_1_93
*812 FILLER_1_96
*813 FILLER_1_99
*814 FILLER_2_100
*815 FILLER_2_103
*816 FILLER_2_106
*817 FILLER_2_109
*818 FILLER_2_112
*819 FILLER_2_115
*820 FILLER_2_118
*821 FILLER_2_12
*822 FILLER_2_121
*823 FILLER_2_124
*824 FILLER_2_127
*825 FILLER_2_130
*826 FILLER_2_133
*827 FILLER_2_136
*828 FILLER_2_139
*829 FILLER_2_141
*830 FILLER_2_144
*831 FILLER_2_147
*832 FILLER_2_15
*833 FILLER_2_150
*834 FILLER_2_153
*835 FILLER_2_156
*836 FILLER_2_159
*837 FILLER_2_162
*838 FILLER_2_165
*839 FILLER_2_171
*840 FILLER_2_175
*841 FILLER_2_178
*842 FILLER_2_18
*843 FILLER_2_181
*844 FILLER_2_184
*845 FILLER_2_187
*846 FILLER_2_190
*847 FILLER_2_194
*848 FILLER_2_197
*849 FILLER_2_200
*850 FILLER_2_204
*851 FILLER_2_207
*852 FILLER_2_21
*853 FILLER_2_210
*854 FILLER_2_213
*855 FILLER_2_216
*856 FILLER_2_219
*857 FILLER_2_222
*858 FILLER_2_225
*859 FILLER_2_228
*860 FILLER_2_231
*861 FILLER_2_234
*862 FILLER_2_237
*863 FILLER_2_24
*864 FILLER_2_240
*865 FILLER_2_243
*866 FILLER_2_246
*867 FILLER_2_249
*868 FILLER_2_253
*869 FILLER_2_256
*870 FILLER_2_259
*871 FILLER_2_262
*872 FILLER_2_265
*873 FILLER_2_268
*874 FILLER_2_27
*875 FILLER_2_271
*876 FILLER_2_274
*877 FILLER_2_277
*878 FILLER_2_280
*879 FILLER_2_283
*880 FILLER_2_286
*881 FILLER_2_29
*882 FILLER_2_293
*883 FILLER_2_3
*884 FILLER_2_300
*885 FILLER_2_306
*886 FILLER_2_312
*887 FILLER_2_315
*888 FILLER_2_318
*889 FILLER_2_32
*890 FILLER_2_321
*891 FILLER_2_324
*892 FILLER_2_327
*893 FILLER_2_330
*894 FILLER_2_333
*895 FILLER_2_336
*896 FILLER_2_339
*897 FILLER_2_342
*898 FILLER_2_345
*899 FILLER_2_348
*900 FILLER_2_35
*901 FILLER_2_351
*902 FILLER_2_354
*903 FILLER_2_357
*904 FILLER_2_360
*905 FILLER_2_363
*906 FILLER_2_370
*907 FILLER_2_373
*908 FILLER_2_377
*909 FILLER_2_38
*910 FILLER_2_380
*911 FILLER_2_383
*912 FILLER_2_386
*913 FILLER_2_389
*914 FILLER_2_392
*915 FILLER_2_395
*916 FILLER_2_398
*917 FILLER_2_401
*918 FILLER_2_404
*919 FILLER_2_407
*920 FILLER_2_41
*921 FILLER_2_410
*922 FILLER_2_413
*923 FILLER_2_416
*924 FILLER_2_419
*925 FILLER_2_421
*926 FILLER_2_424
*927 FILLER_2_427
*928 FILLER_2_430
*929 FILLER_2_433
*930 FILLER_2_436
*931 FILLER_2_439
*932 FILLER_2_44
*933 FILLER_2_442
*934 FILLER_2_445
*935 FILLER_2_448
*936 FILLER_2_451
*937 FILLER_2_457
*938 FILLER_2_460
*939 FILLER_2_463
*940 FILLER_2_47
*941 FILLER_2_50
*942 FILLER_2_53
*943 FILLER_2_56
*944 FILLER_2_59
*945 FILLER_2_6
*946 FILLER_2_62
*947 FILLER_2_65
*948 FILLER_2_68
*949 FILLER_2_71
*950 FILLER_2_74
*951 FILLER_2_77
*952 FILLER_2_80
*953 FILLER_2_83
*954 FILLER_2_85
*955 FILLER_2_88
*956 FILLER_2_9
*957 FILLER_2_91
*958 FILLER_2_94
*959 FILLER_2_97
*960 FILLER_3_101
*961 FILLER_3_104
*962 FILLER_3_107
*963 FILLER_3_110
*964 FILLER_3_113
*965 FILLER_3_116
*966 FILLER_3_119
*967 FILLER_3_12
*968 FILLER_3_122
*969 FILLER_3_125
*970 FILLER_3_128
*971 FILLER_3_131
*972 FILLER_3_134
*973 FILLER_3_137
*974 FILLER_3_140
*975 FILLER_3_143
*976 FILLER_3_146
*977 FILLER_3_149
*978 FILLER_3_15
*979 FILLER_3_152
*980 FILLER_3_155
*981 FILLER_3_158
*982 FILLER_3_161
*983 FILLER_3_164
*984 FILLER_3_167
*985 FILLER_3_169
*986 FILLER_3_172
*987 FILLER_3_175
*988 FILLER_3_178
*989 FILLER_3_18
*990 FILLER_3_181
*991 FILLER_3_184
*992 FILLER_3_187
*993 FILLER_3_190
*994 FILLER_3_193
*995 FILLER_3_196
*996 FILLER_3_199
*997 FILLER_3_202
*998 FILLER_3_205
*999 FILLER_3_208
*1000 FILLER_3_21
*1001 FILLER_3_211
*1002 FILLER_3_214
*1003 FILLER_3_217
*1004 FILLER_3_220
*1005 FILLER_3_223
*1006 FILLER_3_225
*1007 FILLER_3_228
*1008 FILLER_3_231
*1009 FILLER_3_234
*1010 FILLER_3_237
*1011 FILLER_3_24
*1012 FILLER_3_240
*1013 FILLER_3_243
*1014 FILLER_3_246
*1015 FILLER_3_249
*1016 FILLER_3_252
*1017 FILLER_3_255
*1018 FILLER_3_258
*1019 FILLER_3_261
*1020 FILLER_3_264
*1021 FILLER_3_267
*1022 FILLER_3_27
*1023 FILLER_3_270
*1024 FILLER_3_273
*1025 FILLER_3_276
*1026 FILLER_3_279
*1027 FILLER_3_281
*1028 FILLER_3_285
*1029 FILLER_3_288
*1030 FILLER_3_291
*1031 FILLER_3_294
*1032 FILLER_3_297
*1033 FILLER_3_3
*1034 FILLER_3_30
*1035 FILLER_3_300
*1036 FILLER_3_303
*1037 FILLER_3_306
*1038 FILLER_3_309
*1039 FILLER_3_312
*1040 FILLER_3_315
*1041 FILLER_3_318
*1042 FILLER_3_321
*1043 FILLER_3_324
*1044 FILLER_3_327
*1045 FILLER_3_33
*1046 FILLER_3_330
*1047 FILLER_3_333
*1048 FILLER_3_337
*1049 FILLER_3_340
*1050 FILLER_3_343
*1051 FILLER_3_346
*1052 FILLER_3_349
*1053 FILLER_3_352
*1054 FILLER_3_355
*1055 FILLER_3_358
*1056 FILLER_3_36
*1057 FILLER_3_361
*1058 FILLER_3_364
*1059 FILLER_3_367
*1060 FILLER_3_370
*1061 FILLER_3_373
*1062 FILLER_3_376
*1063 FILLER_3_379
*1064 FILLER_3_382
*1065 FILLER_3_385
*1066 FILLER_3_388
*1067 FILLER_3_39
*1068 FILLER_3_391
*1069 FILLER_3_393
*1070 FILLER_3_396
*1071 FILLER_3_399
*1072 FILLER_3_402
*1073 FILLER_3_408
*1074 FILLER_3_411
*1075 FILLER_3_414
*1076 FILLER_3_417
*1077 FILLER_3_420
*1078 FILLER_3_423
*1079 FILLER_3_426
*1080 FILLER_3_429
*1081 FILLER_3_432
*1082 FILLER_3_435
*1083 FILLER_3_438
*1084 FILLER_3_441
*1085 FILLER_3_444
*1086 FILLER_3_447
*1087 FILLER_3_449
*1088 FILLER_3_45
*1089 FILLER_3_452
*1090 FILLER_3_460
*1091 FILLER_3_463
*1092 FILLER_3_48
*1093 FILLER_3_51
*1094 FILLER_3_54
*1095 FILLER_3_57
*1096 FILLER_3_6
*1097 FILLER_3_60
*1098 FILLER_3_63
*1099 FILLER_3_66
*1100 FILLER_3_69
*1101 FILLER_3_74
*1102 FILLER_3_77
*1103 FILLER_3_80
*1104 FILLER_3_83
*1105 FILLER_3_86
*1106 FILLER_3_89
*1107 FILLER_3_9
*1108 FILLER_3_92
*1109 FILLER_3_98
*1110 FILLER_4_100
*1111 FILLER_4_103
*1112 FILLER_4_109
*1113 FILLER_4_112
*1114 FILLER_4_115
*1115 FILLER_4_120
*1116 FILLER_4_123
*1117 FILLER_4_126
*1118 FILLER_4_130
*1119 FILLER_4_133
*1120 FILLER_4_136
*1121 FILLER_4_139
*1122 FILLER_4_14
*1123 FILLER_4_144
*1124 FILLER_4_147
*1125 FILLER_4_150
*1126 FILLER_4_153
*1127 FILLER_4_156
*1128 FILLER_4_159
*1129 FILLER_4_162
*1130 FILLER_4_165
*1131 FILLER_4_169
*1132 FILLER_4_17
*1133 FILLER_4_172
*1134 FILLER_4_175
*1135 FILLER_4_178
*1136 FILLER_4_181
*1137 FILLER_4_184
*1138 FILLER_4_187
*1139 FILLER_4_190
*1140 FILLER_4_193
*1141 FILLER_4_197
*1142 FILLER_4_20
*1143 FILLER_4_200
*1144 FILLER_4_203
*1145 FILLER_4_206
*1146 FILLER_4_209
*1147 FILLER_4_212
*1148 FILLER_4_215
*1149 FILLER_4_218
*1150 FILLER_4_221
*1151 FILLER_4_224
*1152 FILLER_4_227
*1153 FILLER_4_23
*1154 FILLER_4_230
*1155 FILLER_4_233
*1156 FILLER_4_236
*1157 FILLER_4_239
*1158 FILLER_4_245
*1159 FILLER_4_248
*1160 FILLER_4_251
*1161 FILLER_4_253
*1162 FILLER_4_256
*1163 FILLER_4_259
*1164 FILLER_4_26
*1165 FILLER_4_262
*1166 FILLER_4_265
*1167 FILLER_4_268
*1168 FILLER_4_271
*1169 FILLER_4_274
*1170 FILLER_4_277
*1171 FILLER_4_280
*1172 FILLER_4_283
*1173 FILLER_4_286
*1174 FILLER_4_289
*1175 FILLER_4_29
*1176 FILLER_4_292
*1177 FILLER_4_295
*1178 FILLER_4_298
*1179 FILLER_4_3
*1180 FILLER_4_301
*1181 FILLER_4_304
*1182 FILLER_4_307
*1183 FILLER_4_309
*1184 FILLER_4_312
*1185 FILLER_4_315
*1186 FILLER_4_318
*1187 FILLER_4_32
*1188 FILLER_4_321
*1189 FILLER_4_324
*1190 FILLER_4_327
*1191 FILLER_4_330
*1192 FILLER_4_333
*1193 FILLER_4_336
*1194 FILLER_4_339
*1195 FILLER_4_342
*1196 FILLER_4_345
*1197 FILLER_4_348
*1198 FILLER_4_35
*1199 FILLER_4_351
*1200 FILLER_4_354
*1201 FILLER_4_357
*1202 FILLER_4_360
*1203 FILLER_4_363
*1204 FILLER_4_365
*1205 FILLER_4_368
*1206 FILLER_4_371
*1207 FILLER_4_374
*1208 FILLER_4_377
*1209 FILLER_4_38
*1210 FILLER_4_380
*1211 FILLER_4_383
*1212 FILLER_4_386
*1213 FILLER_4_389
*1214 FILLER_4_392
*1215 FILLER_4_395
*1216 FILLER_4_398
*1217 FILLER_4_401
*1218 FILLER_4_404
*1219 FILLER_4_407
*1220 FILLER_4_41
*1221 FILLER_4_410
*1222 FILLER_4_416
*1223 FILLER_4_419
*1224 FILLER_4_421
*1225 FILLER_4_424
*1226 FILLER_4_427
*1227 FILLER_4_430
*1228 FILLER_4_433
*1229 FILLER_4_439
*1230 FILLER_4_44
*1231 FILLER_4_442
*1232 FILLER_4_445
*1233 FILLER_4_448
*1234 FILLER_4_454
*1235 FILLER_4_457
*1236 FILLER_4_460
*1237 FILLER_4_47
*1238 FILLER_4_50
*1239 FILLER_4_53
*1240 FILLER_4_59
*1241 FILLER_4_6
*1242 FILLER_4_63
*1243 FILLER_4_68
*1244 FILLER_4_71
*1245 FILLER_4_74
*1246 FILLER_4_77
*1247 FILLER_4_80
*1248 FILLER_4_83
*1249 FILLER_4_85
*1250 FILLER_4_88
*1251 FILLER_4_9
*1252 FILLER_4_91
*1253 FILLER_4_94
*1254 FILLER_4_97
*1255 FILLER_5_102
*1256 FILLER_5_105
*1257 FILLER_5_108
*1258 FILLER_5_111
*1259 FILLER_5_113
*1260 FILLER_5_116
*1261 FILLER_5_119
*1262 FILLER_5_12
*1263 FILLER_5_122
*1264 FILLER_5_125
*1265 FILLER_5_128
*1266 FILLER_5_131
*1267 FILLER_5_134
*1268 FILLER_5_137
*1269 FILLER_5_140
*1270 FILLER_5_143
*1271 FILLER_5_146
*1272 FILLER_5_149
*1273 FILLER_5_15
*1274 FILLER_5_152
*1275 FILLER_5_155
*1276 FILLER_5_158
*1277 FILLER_5_161
*1278 FILLER_5_165
*1279 FILLER_5_169
*1280 FILLER_5_172
*1281 FILLER_5_175
*1282 FILLER_5_178
*1283 FILLER_5_18
*1284 FILLER_5_181
*1285 FILLER_5_184
*1286 FILLER_5_187
*1287 FILLER_5_190
*1288 FILLER_5_193
*1289 FILLER_5_196
*1290 FILLER_5_199
*1291 FILLER_5_202
*1292 FILLER_5_205
*1293 FILLER_5_208
*1294 FILLER_5_213
*1295 FILLER_5_216
*1296 FILLER_5_219
*1297 FILLER_5_222
*1298 FILLER_5_225
*1299 FILLER_5_228
*1300 FILLER_5_231
*1301 FILLER_5_234
*1302 FILLER_5_237
*1303 FILLER_5_24
*1304 FILLER_5_240
*1305 FILLER_5_243
*1306 FILLER_5_246
*1307 FILLER_5_249
*1308 FILLER_5_252
*1309 FILLER_5_255
*1310 FILLER_5_258
*1311 FILLER_5_261
*1312 FILLER_5_264
*1313 FILLER_5_267
*1314 FILLER_5_27
*1315 FILLER_5_270
*1316 FILLER_5_273
*1317 FILLER_5_276
*1318 FILLER_5_279
*1319 FILLER_5_281
*1320 FILLER_5_284
*1321 FILLER_5_287
*1322 FILLER_5_290
*1323 FILLER_5_293
*1324 FILLER_5_296
*1325 FILLER_5_299
*1326 FILLER_5_3
*1327 FILLER_5_30
*1328 FILLER_5_302
*1329 FILLER_5_305
*1330 FILLER_5_308
*1331 FILLER_5_311
*1332 FILLER_5_314
*1333 FILLER_5_317
*1334 FILLER_5_320
*1335 FILLER_5_323
*1336 FILLER_5_326
*1337 FILLER_5_329
*1338 FILLER_5_33
*1339 FILLER_5_333
*1340 FILLER_5_337
*1341 FILLER_5_340
*1342 FILLER_5_343
*1343 FILLER_5_346
*1344 FILLER_5_349
*1345 FILLER_5_352
*1346 FILLER_5_355
*1347 FILLER_5_358
*1348 FILLER_5_36
*1349 FILLER_5_361
*1350 FILLER_5_364
*1351 FILLER_5_367
*1352 FILLER_5_370
*1353 FILLER_5_373
*1354 FILLER_5_376
*1355 FILLER_5_379
*1356 FILLER_5_382
*1357 FILLER_5_385
*1358 FILLER_5_388
*1359 FILLER_5_39
*1360 FILLER_5_391
*1361 FILLER_5_393
*1362 FILLER_5_396
*1363 FILLER_5_399
*1364 FILLER_5_402
*1365 FILLER_5_405
*1366 FILLER_5_408
*1367 FILLER_5_411
*1368 FILLER_5_414
*1369 FILLER_5_417
*1370 FILLER_5_42
*1371 FILLER_5_420
*1372 FILLER_5_423
*1373 FILLER_5_426
*1374 FILLER_5_429
*1375 FILLER_5_432
*1376 FILLER_5_435
*1377 FILLER_5_438
*1378 FILLER_5_441
*1379 FILLER_5_444
*1380 FILLER_5_447
*1381 FILLER_5_45
*1382 FILLER_5_459
*1383 FILLER_5_462
*1384 FILLER_5_48
*1385 FILLER_5_51
*1386 FILLER_5_54
*1387 FILLER_5_57
*1388 FILLER_5_6
*1389 FILLER_5_60
*1390 FILLER_5_63
*1391 FILLER_5_66
*1392 FILLER_5_69
*1393 FILLER_5_72
*1394 FILLER_5_75
*1395 FILLER_5_78
*1396 FILLER_5_81
*1397 FILLER_5_84
*1398 FILLER_5_87
*1399 FILLER_5_9
*1400 FILLER_5_90
*1401 FILLER_5_93
*1402 FILLER_5_96
*1403 FILLER_5_99
*1404 FILLER_6_100
*1405 FILLER_6_103
*1406 FILLER_6_106
*1407 FILLER_6_109
*1408 FILLER_6_112
*1409 FILLER_6_115
*1410 FILLER_6_118
*1411 FILLER_6_121
*1412 FILLER_6_124
*1413 FILLER_6_127
*1414 FILLER_6_13
*1415 FILLER_6_130
*1416 FILLER_6_133
*1417 FILLER_6_136
*1418 FILLER_6_139
*1419 FILLER_6_141
*1420 FILLER_6_144
*1421 FILLER_6_147
*1422 FILLER_6_150
*1423 FILLER_6_153
*1424 FILLER_6_156
*1425 FILLER_6_159
*1426 FILLER_6_16
*1427 FILLER_6_162
*1428 FILLER_6_171
*1429 FILLER_6_174
*1430 FILLER_6_177
*1431 FILLER_6_180
*1432 FILLER_6_183
*1433 FILLER_6_186
*1434 FILLER_6_189
*1435 FILLER_6_19
*1436 FILLER_6_192
*1437 FILLER_6_195
*1438 FILLER_6_197
*1439 FILLER_6_200
*1440 FILLER_6_203
*1441 FILLER_6_206
*1442 FILLER_6_209
*1443 FILLER_6_212
*1444 FILLER_6_215
*1445 FILLER_6_218
*1446 FILLER_6_22
*1447 FILLER_6_221
*1448 FILLER_6_224
*1449 FILLER_6_227
*1450 FILLER_6_230
*1451 FILLER_6_234
*1452 FILLER_6_237
*1453 FILLER_6_240
*1454 FILLER_6_243
*1455 FILLER_6_246
*1456 FILLER_6_249
*1457 FILLER_6_25
*1458 FILLER_6_253
*1459 FILLER_6_256
*1460 FILLER_6_259
*1461 FILLER_6_262
*1462 FILLER_6_265
*1463 FILLER_6_268
*1464 FILLER_6_271
*1465 FILLER_6_274
*1466 FILLER_6_277
*1467 FILLER_6_280
*1468 FILLER_6_284
*1469 FILLER_6_287
*1470 FILLER_6_29
*1471 FILLER_6_290
*1472 FILLER_6_293
*1473 FILLER_6_296
*1474 FILLER_6_299
*1475 FILLER_6_3
*1476 FILLER_6_302
*1477 FILLER_6_305
*1478 FILLER_6_309
*1479 FILLER_6_312
*1480 FILLER_6_315
*1481 FILLER_6_318
*1482 FILLER_6_32
*1483 FILLER_6_321
*1484 FILLER_6_324
*1485 FILLER_6_327
*1486 FILLER_6_335
*1487 FILLER_6_338
*1488 FILLER_6_341
*1489 FILLER_6_344
*1490 FILLER_6_347
*1491 FILLER_6_35
*1492 FILLER_6_350
*1493 FILLER_6_353
*1494 FILLER_6_356
*1495 FILLER_6_359
*1496 FILLER_6_362
*1497 FILLER_6_365
*1498 FILLER_6_368
*1499 FILLER_6_371
*1500 FILLER_6_374
*1501 FILLER_6_377
*1502 FILLER_6_38
*1503 FILLER_6_380
*1504 FILLER_6_383
*1505 FILLER_6_386
*1506 FILLER_6_389
*1507 FILLER_6_392
*1508 FILLER_6_395
*1509 FILLER_6_398
*1510 FILLER_6_401
*1511 FILLER_6_404
*1512 FILLER_6_407
*1513 FILLER_6_41
*1514 FILLER_6_410
*1515 FILLER_6_413
*1516 FILLER_6_416
*1517 FILLER_6_419
*1518 FILLER_6_421
*1519 FILLER_6_424
*1520 FILLER_6_427
*1521 FILLER_6_430
*1522 FILLER_6_433
*1523 FILLER_6_436
*1524 FILLER_6_439
*1525 FILLER_6_44
*1526 FILLER_6_442
*1527 FILLER_6_445
*1528 FILLER_6_448
*1529 FILLER_6_451
*1530 FILLER_6_454
*1531 FILLER_6_462
*1532 FILLER_6_47
*1533 FILLER_6_50
*1534 FILLER_6_53
*1535 FILLER_6_56
*1536 FILLER_6_59
*1537 FILLER_6_6
*1538 FILLER_6_62
*1539 FILLER_6_65
*1540 FILLER_6_68
*1541 FILLER_6_71
*1542 FILLER_6_74
*1543 FILLER_6_77
*1544 FILLER_6_80
*1545 FILLER_6_83
*1546 FILLER_6_85
*1547 FILLER_6_88
*1548 FILLER_6_91
*1549 FILLER_6_94
*1550 FILLER_6_97
*1551 FILLER_7_102
*1552 FILLER_7_105
*1553 FILLER_7_108
*1554 FILLER_7_111
*1555 FILLER_7_113
*1556 FILLER_7_116
*1557 FILLER_7_119
*1558 FILLER_7_12
*1559 FILLER_7_122
*1560 FILLER_7_125
*1561 FILLER_7_128
*1562 FILLER_7_131
*1563 FILLER_7_134
*1564 FILLER_7_137
*1565 FILLER_7_140
*1566 FILLER_7_143
*1567 FILLER_7_146
*1568 FILLER_7_149
*1569 FILLER_7_15
*1570 FILLER_7_152
*1571 FILLER_7_155
*1572 FILLER_7_158
*1573 FILLER_7_161
*1574 FILLER_7_164
*1575 FILLER_7_167
*1576 FILLER_7_169
*1577 FILLER_7_172
*1578 FILLER_7_175
*1579 FILLER_7_178
*1580 FILLER_7_18
*1581 FILLER_7_181
*1582 FILLER_7_184
*1583 FILLER_7_188
*1584 FILLER_7_191
*1585 FILLER_7_194
*1586 FILLER_7_197
*1587 FILLER_7_200
*1588 FILLER_7_203
*1589 FILLER_7_206
*1590 FILLER_7_209
*1591 FILLER_7_21
*1592 FILLER_7_212
*1593 FILLER_7_215
*1594 FILLER_7_218
*1595 FILLER_7_221
*1596 FILLER_7_225
*1597 FILLER_7_228
*1598 FILLER_7_231
*1599 FILLER_7_234
*1600 FILLER_7_24
*1601 FILLER_7_241
*1602 FILLER_7_244
*1603 FILLER_7_247
*1604 FILLER_7_250
*1605 FILLER_7_253
*1606 FILLER_7_256
*1607 FILLER_7_259
*1608 FILLER_7_262
*1609 FILLER_7_265
*1610 FILLER_7_27
*1611 FILLER_7_271
*1612 FILLER_7_274
*1613 FILLER_7_277
*1614 FILLER_7_281
*1615 FILLER_7_284
*1616 FILLER_7_287
*1617 FILLER_7_290
*1618 FILLER_7_293
*1619 FILLER_7_296
*1620 FILLER_7_299
*1621 FILLER_7_3
*1622 FILLER_7_30
*1623 FILLER_7_302
*1624 FILLER_7_305
*1625 FILLER_7_308
*1626 FILLER_7_311
*1627 FILLER_7_314
*1628 FILLER_7_317
*1629 FILLER_7_320
*1630 FILLER_7_323
*1631 FILLER_7_326
*1632 FILLER_7_329
*1633 FILLER_7_33
*1634 FILLER_7_332
*1635 FILLER_7_335
*1636 FILLER_7_337
*1637 FILLER_7_340
*1638 FILLER_7_343
*1639 FILLER_7_346
*1640 FILLER_7_349
*1641 FILLER_7_352
*1642 FILLER_7_355
*1643 FILLER_7_358
*1644 FILLER_7_361
*1645 FILLER_7_364
*1646 FILLER_7_367
*1647 FILLER_7_370
*1648 FILLER_7_373
*1649 FILLER_7_376
*1650 FILLER_7_379
*1651 FILLER_7_38
*1652 FILLER_7_382
*1653 FILLER_7_385
*1654 FILLER_7_388
*1655 FILLER_7_396
*1656 FILLER_7_399
*1657 FILLER_7_402
*1658 FILLER_7_406
*1659 FILLER_7_409
*1660 FILLER_7_41
*1661 FILLER_7_412
*1662 FILLER_7_415
*1663 FILLER_7_419
*1664 FILLER_7_422
*1665 FILLER_7_425
*1666 FILLER_7_428
*1667 FILLER_7_433
*1668 FILLER_7_436
*1669 FILLER_7_439
*1670 FILLER_7_442
*1671 FILLER_7_445