*SPEF "ieee 1481-1999"
*DESIGN "N_term_DSP"
*DATE "11:51:11 Thursday May 08, 2025"
*VENDOR "The OpenROAD Project"
*PROGRAM "OpenROAD"
*VERSION "87af90f72f3f9be1fdfa1d886f0dd8d8b8f34694"
*DESIGN_FLOW "NAME_SCOPE LOCAL" "PIN_CAP NONE"
*DIVIDER /
*DELIMITER :
*BUS_DELIMITER []
*T_UNIT 1 NS
*C_UNIT 1 PF
*R_UNIT 1 OHM
*L_UNIT 1 HENRY

*NAME_MAP
*1 FrameData[0]
*2 FrameData[10]
*3 FrameData[11]
*4 FrameData[12]
*5 FrameData[13]
*6 FrameData[14]
*7 FrameData[15]
*8 FrameData[16]
*9 FrameData[17]
*10 FrameData[18]
*11 FrameData[19]
*12 FrameData[1]
*13 FrameData[20]
*14 FrameData[21]
*15 FrameData[22]
*16 FrameData[23]
*17 FrameData[24]
*18 FrameData[25]
*19 FrameData[26]
*20 FrameData[27]
*21 FrameData[28]
*22 FrameData[29]
*23 FrameData[2]
*24 FrameData[30]
*25 FrameData[31]
*26 FrameData[3]
*27 FrameData[4]
*28 FrameData[5]
*29 FrameData[6]
*30 FrameData[7]
*31 FrameData[8]
*32 FrameData[9]
*33 FrameData_O[0]
*34 FrameData_O[10]
*35 FrameData_O[11]
*36 FrameData_O[12]
*37 FrameData_O[13]
*38 FrameData_O[14]
*39 FrameData_O[15]
*40 FrameData_O[16]
*41 FrameData_O[17]
*42 FrameData_O[18]
*43 FrameData_O[19]
*44 FrameData_O[1]
*45 FrameData_O[20]
*46 FrameData_O[21]
*47 FrameData_O[22]
*48 FrameData_O[23]
*49 FrameData_O[24]
*50 FrameData_O[25]
*51 FrameData_O[26]
*52 FrameData_O[27]
*53 FrameData_O[28]
*54 FrameData_O[29]
*55 FrameData_O[2]
*56 FrameData_O[30]
*57 FrameData_O[31]
*58 FrameData_O[3]
*59 FrameData_O[4]
*60 FrameData_O[5]
*61 FrameData_O[6]
*62 FrameData_O[7]
*63 FrameData_O[8]
*64 FrameData_O[9]
*65 FrameStrobe[0]
*66 FrameStrobe[10]
*67 FrameStrobe[11]
*68 FrameStrobe[12]
*69 FrameStrobe[13]
*70 FrameStrobe[14]
*71 FrameStrobe[15]
*72 FrameStrobe[16]
*73 FrameStrobe[17]
*74 FrameStrobe[18]
*75 FrameStrobe[19]
*76 FrameStrobe[1]
*77 FrameStrobe[2]
*78 FrameStrobe[3]
*79 FrameStrobe[4]
*80 FrameStrobe[5]
*81 FrameStrobe[6]
*82 FrameStrobe[7]
*83 FrameStrobe[8]
*84 FrameStrobe[9]
*85 FrameStrobe_O[0]
*86 FrameStrobe_O[10]
*87 FrameStrobe_O[11]
*88 FrameStrobe_O[12]
*89 FrameStrobe_O[13]
*90 FrameStrobe_O[14]
*91 FrameStrobe_O[15]
*92 FrameStrobe_O[16]
*93 FrameStrobe_O[17]
*94 FrameStrobe_O[18]
*95 FrameStrobe_O[19]
*96 FrameStrobe_O[1]
*97 FrameStrobe_O[2]
*98 FrameStrobe_O[3]
*99 FrameStrobe_O[4]
*100 FrameStrobe_O[5]
*101 FrameStrobe_O[6]
*102 FrameStrobe_O[7]
*103 FrameStrobe_O[8]
*104 FrameStrobe_O[9]
*105 N1END[0]
*106 N1END[1]
*107 N1END[2]
*108 N1END[3]
*109 N2END[0]
*110 N2END[1]
*111 N2END[2]
*112 N2END[3]
*113 N2END[4]
*114 N2END[5]
*115 N2END[6]
*116 N2END[7]
*117 N2MID[0]
*118 N2MID[1]
*119 N2MID[2]
*120 N2MID[3]
*121 N2MID[4]
*122 N2MID[5]
*123 N2MID[6]
*124 N2MID[7]
*125 N4END[0]
*126 N4END[10]
*127 N4END[11]
*128 N4END[12]
*129 N4END[13]
*130 N4END[14]
*131 N4END[15]
*132 N4END[1]
*133 N4END[2]
*134 N4END[3]
*135 N4END[4]
*136 N4END[5]
*137 N4END[6]
*138 N4END[7]
*139 N4END[8]
*140 N4END[9]
*141 NN4END[0]
*142 NN4END[10]
*143 NN4END[11]
*144 NN4END[12]
*145 NN4END[13]
*146 NN4END[14]
*147 NN4END[15]
*148 NN4END[1]
*149 NN4END[2]
*150 NN4END[3]
*151 NN4END[4]
*152 NN4END[5]
*153 NN4END[6]
*154 NN4END[7]
*155 NN4END[8]
*156 NN4END[9]
*157 S1BEG[0]
*158 S1BEG[1]
*159 S1BEG[2]
*160 S1BEG[3]
*161 S2BEG[0]
*162 S2BEG[1]
*163 S2BEG[2]
*164 S2BEG[3]
*165 S2BEG[4]
*166 S2BEG[5]
*167 S2BEG[6]
*168 S2BEG[7]
*169 S2BEGb[0]
*170 S2BEGb[1]
*171 S2BEGb[2]
*172 S2BEGb[3]
*173 S2BEGb[4]
*174 S2BEGb[5]
*175 S2BEGb[6]
*176 S2BEGb[7]
*177 S4BEG[0]
*178 S4BEG[10]
*179 S4BEG[11]
*180 S4BEG[12]
*181 S4BEG[13]
*182 S4BEG[14]
*183 S4BEG[15]
*184 S4BEG[1]
*185 S4BEG[2]
*186 S4BEG[3]
*187 S4BEG[4]
*188 S4BEG[5]
*189 S4BEG[6]
*190 S4BEG[7]
*191 S4BEG[8]
*192 S4BEG[9]
*193 SS4BEG[0]
*194 SS4BEG[10]
*195 SS4BEG[11]
*196 SS4BEG[12]
*197 SS4BEG[13]
*198 SS4BEG[14]
*199 SS4BEG[15]
*200 SS4BEG[1]
*201 SS4BEG[2]
*202 SS4BEG[3]
*203 SS4BEG[4]
*204 SS4BEG[5]
*205 SS4BEG[6]
*206 SS4BEG[7]
*207 SS4BEG[8]
*208 SS4BEG[9]
*209 UserCLK
*210 UserCLKo
*213 net1
*214 net10
*215 net100
*216 net101
*217 net102
*218 net103
*219 net104
*220 net105
*221 net11
*222 net12
*223 net13
*224 net14
*225 net15
*226 net16
*227 net17
*228 net18
*229 net19
*230 net2
*231 net20
*232 net21
*233 net22
*234 net23
*235 net24
*236 net25
*237 net26
*238 net27
*239 net28
*240 net29
*241 net3
*242 net30
*243 net31
*244 net32
*245 net33
*246 net34
*247 net35
*248 net36
*249 net37
*250 net38
*251 net39
*252 net4
*253 net40
*254 net41
*255 net42
*256 net43
*257 net44
*258 net45
*259 net46
*260 net47
*261 net48
*262 net49
*263 net5
*264 net50
*265 net51
*266 net52
*267 net53
*268 net54
*269 net55
*270 net56
*271 net57
*272 net58
*273 net59
*274 net6
*275 net60
*276 net61
*277 net62
*278 net63
*279 net64
*280 net65
*281 net66
*282 net67
*283 net68
*284 net69
*285 net7
*286 net70
*287 net71
*288 net72
*289 net73
*290 net74
*291 net75
*292 net76
*293 net77
*294 net78
*295 net79
*296 net8
*297 net80
*298 net81
*299 net82
*300 net83
*301 net84
*302 net85
*303 net86
*304 net87
*305 net88
*306 net89
*307 net9
*308 net90
*309 net91
*310 net92
*311 net93
*312 net94
*313 net95
*314 net96
*315 net97
*316 net98
*317 net99
*318 ANTENNA_1
*319 ANTENNA_10
*320 ANTENNA_11
*321 ANTENNA_12
*322 ANTENNA_13
*323 ANTENNA_14
*324 ANTENNA_15
*325 ANTENNA_16
*326 ANTENNA_17
*327 ANTENNA_18
*328 ANTENNA_19
*329 ANTENNA_2
*330 ANTENNA_20
*331 ANTENNA_21
*332 ANTENNA_22
*333 ANTENNA_23
*334 ANTENNA_24
*335 ANTENNA_25
*336 ANTENNA_26
*337 ANTENNA_27
*338 ANTENNA_28
*339 ANTENNA_29
*340 ANTENNA_3
*341 ANTENNA_30
*342 ANTENNA_31
*343 ANTENNA_32
*344 ANTENNA_33
*345 ANTENNA_34
*346 ANTENNA_35
*347 ANTENNA_36
*348 ANTENNA_37
*349 ANTENNA_38
*350 ANTENNA_39
*351 ANTENNA_4
*352 ANTENNA_40
*353 ANTENNA_41
*354 ANTENNA_42
*355 ANTENNA_43
*356 ANTENNA_5
*357 ANTENNA_6
*358 ANTENNA_7
*359 ANTENNA_8
*360 ANTENNA_9
*361 FILLER_0_100
*362 FILLER_0_103
*363 FILLER_0_106
*364 FILLER_0_109
*365 FILLER_0_113
*366 FILLER_0_116
*367 FILLER_0_119
*368 FILLER_0_12
*369 FILLER_0_122
*370 FILLER_0_125
*371 FILLER_0_128
*372 FILLER_0_131
*373 FILLER_0_134
*374 FILLER_0_137
*375 FILLER_0_141
*376 FILLER_0_144
*377 FILLER_0_147
*378 FILLER_0_15
*379 FILLER_0_150
*380 FILLER_0_153
*381 FILLER_0_156
*382 FILLER_0_159
*383 FILLER_0_162
*384 FILLER_0_165
*385 FILLER_0_169
*386 FILLER_0_18
*387 FILLER_0_21
*388 FILLER_0_221
*389 FILLER_0_24
*390 FILLER_0_249
*391 FILLER_0_27
*392 FILLER_0_277
*393 FILLER_0_29
*394 FILLER_0_3
*395 FILLER_0_305
*396 FILLER_0_32
*397 FILLER_0_333
*398 FILLER_0_341
*399 FILLER_0_344
*400 FILLER_0_347
*401 FILLER_0_35
*402 FILLER_0_350
*403 FILLER_0_353
*404 FILLER_0_356
*405 FILLER_0_359
*406 FILLER_0_362
*407 FILLER_0_365
*408 FILLER_0_368
*409 FILLER_0_371
*410 FILLER_0_374
*411 FILLER_0_377
*412 FILLER_0_38
*413 FILLER_0_380
*414 FILLER_0_383
*415 FILLER_0_393
*416 FILLER_0_41
*417 FILLER_0_44
*418 FILLER_0_47
*419 FILLER_0_50
*420 FILLER_0_53
*421 FILLER_0_57
*422 FILLER_0_6
*423 FILLER_0_60
*424 FILLER_0_63
*425 FILLER_0_66
*426 FILLER_0_69
*427 FILLER_0_72
*428 FILLER_0_75
*429 FILLER_0_78
*430 FILLER_0_81
*431 FILLER_0_85
*432 FILLER_0_88
*433 FILLER_0_9
*434 FILLER_0_91
*435 FILLER_0_94
*436 FILLER_0_97
*437 FILLER_10_100
*438 FILLER_10_103
*439 FILLER_10_106
*440 FILLER_10_109
*441 FILLER_10_112
*442 FILLER_10_115
*443 FILLER_10_118
*444 FILLER_10_12
*445 FILLER_10_121
*446 FILLER_10_124
*447 FILLER_10_127
*448 FILLER_10_130
*449 FILLER_10_133
*450 FILLER_10_136
*451 FILLER_10_139
*452 FILLER_10_141
*453 FILLER_10_144
*454 FILLER_10_147
*455 FILLER_10_15
*456 FILLER_10_150
*457 FILLER_10_153
*458 FILLER_10_156
*459 FILLER_10_159
*460 FILLER_10_162
*461 FILLER_10_165
*462 FILLER_10_168
*463 FILLER_10_171
*464 FILLER_10_174
*465 FILLER_10_177
*466 FILLER_10_18
*467 FILLER_10_180
*468 FILLER_10_183
*469 FILLER_10_186
*470 FILLER_10_189
*471 FILLER_10_192
*472 FILLER_10_195
*473 FILLER_10_197
*474 FILLER_10_200
*475 FILLER_10_203
*476 FILLER_10_206
*477 FILLER_10_209
*478 FILLER_10_21
*479 FILLER_10_212
*480 FILLER_10_215
*481 FILLER_10_218
*482 FILLER_10_221
*483 FILLER_10_224
*484 FILLER_10_227
*485 FILLER_10_230
*486 FILLER_10_233
*487 FILLER_10_236
*488 FILLER_10_239
*489 FILLER_10_24
*490 FILLER_10_242
*491 FILLER_10_245
*492 FILLER_10_248
*493 FILLER_10_251
*494 FILLER_10_253
*495 FILLER_10_256
*496 FILLER_10_259
*497 FILLER_10_262
*498 FILLER_10_265
*499 FILLER_10_268
*500 FILLER_10_27
*501 FILLER_10_271
*502 FILLER_10_274
*503 FILLER_10_277
*504 FILLER_10_280
*505 FILLER_10_283
*506 FILLER_10_286
*507 FILLER_10_289
*508 FILLER_10_29
*509 FILLER_10_292
*510 FILLER_10_295
*511 FILLER_10_298
*512 FILLER_10_3
*513 FILLER_10_301
*514 FILLER_10_304
*515 FILLER_10_307
*516 FILLER_10_309
*517 FILLER_10_312
*518 FILLER_10_315
*519 FILLER_10_318
*520 FILLER_10_32
*521 FILLER_10_321
*522 FILLER_10_324
*523 FILLER_10_327
*524 FILLER_10_330
*525 FILLER_10_333
*526 FILLER_10_336
*527 FILLER_10_339
*528 FILLER_10_342
*529 FILLER_10_345
*530 FILLER_10_348
*531 FILLER_10_35
*532 FILLER_10_351
*533 FILLER_10_354
*534 FILLER_10_357
*535 FILLER_10_360
*536 FILLER_10_363
*537 FILLER_10_365
*538 FILLER_10_368
*539 FILLER_10_371
*540 FILLER_10_374
*541 FILLER_10_377
*542 FILLER_10_38
*543 FILLER_10_380
*544 FILLER_10_383
*545 FILLER_10_386
*546 FILLER_10_41
*547 FILLER_10_44
*548 FILLER_10_47
*549 FILLER_10_50
*550 FILLER_10_53
*551 FILLER_10_56
*552 FILLER_10_59
*553 FILLER_10_6
*554 FILLER_10_62
*555 FILLER_10_65
*556 FILLER_10_68
*557 FILLER_10_71
*558 FILLER_10_74
*559 FILLER_10_77
*560 FILLER_10_80
*561 FILLER_10_83
*562 FILLER_10_85
*563 FILLER_10_88
*564 FILLER_10_9
*565 FILLER_10_91
*566 FILLER_10_94
*567 FILLER_10_97
*568 FILLER_11_101
*569 FILLER_11_104
*570 FILLER_11_109
*571 FILLER_11_11
*572 FILLER_11_113
*573 FILLER_11_116
*574 FILLER_11_119
*575 FILLER_11_122
*576 FILLER_11_129
*577 FILLER_11_132
*578 FILLER_11_135
*579 FILLER_11_138
*580 FILLER_11_14
*581 FILLER_11_141
*582 FILLER_11_144
*583 FILLER_11_149
*584 FILLER_11_152
*585 FILLER_11_155
*586 FILLER_11_158
*587 FILLER_11_161
*588 FILLER_11_164
*589 FILLER_11_167
*590 FILLER_11_17
*591 FILLER_11_173
*592 FILLER_11_176
*593 FILLER_11_179
*594 FILLER_11_182
*595 FILLER_11_189
*596 FILLER_11_192
*597 FILLER_11_195
*598 FILLER_11_197
*599 FILLER_11_20
*600 FILLER_11_200
*601 FILLER_11_203
*602 FILLER_11_209
*603 FILLER_11_212
*604 FILLER_11_215
*605 FILLER_11_218
*606 FILLER_11_221
*607 FILLER_11_229
*608 FILLER_11_23
*609 FILLER_11_232
*610 FILLER_11_235
*611 FILLER_11_238
*612 FILLER_11_241
*613 FILLER_11_244
*614 FILLER_11_249
*615 FILLER_11_253
*616 FILLER_11_256
*617 FILLER_11_259
*618 FILLER_11_26
*619 FILLER_11_262
*620 FILLER_11_269
*621 FILLER_11_272
*622 FILLER_11_275
*623 FILLER_11_278
*624 FILLER_11_281
*625 FILLER_11_284
*626 FILLER_11_289
*627 FILLER_11_292
*628 FILLER_11_295
*629 FILLER_11_298
*630 FILLER_11_3
*631 FILLER_11_301
*632 FILLER_11_304
*633 FILLER_11_307
*634 FILLER_11_313
*635 FILLER_11_316
*636 FILLER_11_319
*637 FILLER_11_322
*638 FILLER_11_329
*639 FILLER_11_33
*640 FILLER_11_332
*641 FILLER_11_335
*642 FILLER_11_337
*643 FILLER_11_340
*644 FILLER_11_343
*645 FILLER_11_349
*646 FILLER_11_352
*647 FILLER_11_355
*648 FILLER_11_358
*649 FILLER_11_36
*650 FILLER_11_361
*651 FILLER_11_369
*652 FILLER_11_372
*653 FILLER_11_375
*654 FILLER_11_378
*655 FILLER_11_389
*656 FILLER_11_39
*657 FILLER_11_393
*658 FILLER_11_42
*659 FILLER_11_49
*660 FILLER_11_52
*661 FILLER_11_55
*662 FILLER_11_57
*663 FILLER_11_60
*664 FILLER_11_63
*665 FILLER_11_69
*666 FILLER_11_72
*667 FILLER_11_75
*668 FILLER_11_78
*669 FILLER_11_8
*670 FILLER_11_81
*671 FILLER_11_89
*672 FILLER_11_92
*673 FILLER_11_95
*674 FILLER_11_98
*675 FILLER_1_102
*676 FILLER_1_105
*677 FILLER_1_108
*678 FILLER_1_111
*679 FILLER_1_113
*680 FILLER_1_116
*681 FILLER_1_119
*682 FILLER_1_12
*683 FILLER_1_122
*684 FILLER_1_125
*685 FILLER_1_128
*686 FILLER_1_131
*687 FILLER_1_134
*688 FILLER_1_137
*689 FILLER_1_140
*690 FILLER_1_143
*691 FILLER_1_146
*692 FILLER_1_149
*693 FILLER_1_15
*694 FILLER_1_152
*695 FILLER_1_155
*696 FILLER_1_158
*697 FILLER_1_161
*698 FILLER_1_164
*699 FILLER_1_167
*700 FILLER_1_169
*701 FILLER_1_172
*702 FILLER_1_175
*703 FILLER_1_18
*704 FILLER_1_182
*705 FILLER_1_185
*706 FILLER_1_188
*707 FILLER_1_194
*708 FILLER_1_197
*709 FILLER_1_203
*710 FILLER_1_206
*711 FILLER_1_209
*712 FILLER_1_21
*713 FILLER_1_212
*714 FILLER_1_215
*715 FILLER_1_218
*716 FILLER_1_221
*717 FILLER_1_225
*718 FILLER_1_228
*719 FILLER_1_234
*720 FILLER_1_239
*721 FILLER_1_24
*722 FILLER_1_245
*723 FILLER_1_251
*724 FILLER_1_254
*725 FILLER_1_257
*726 FILLER_1_263
*727 FILLER_1_266
*728 FILLER_1_27
*729 FILLER_1_276
*730 FILLER_1_279
*731 FILLER_1_281
*732 FILLER_1_287
*733 FILLER_1_290
*734 FILLER_1_293
*735 FILLER_1_3
*736 FILLER_1_30
*737 FILLER_1_303
*738 FILLER_1_306
*739 FILLER_1_311
*740 FILLER_1_314
*741 FILLER_1_317
*742 FILLER_1_323
*743 FILLER_1_329
*744 FILLER_1_33
*745 FILLER_1_332
*746 FILLER_1_335
*747 FILLER_1_337
*748 FILLER_1_340
*749 FILLER_1_343
*750 FILLER_1_346
*751 FILLER_1_349
*752 FILLER_1_352
*753 FILLER_1_355
*754 FILLER_1_358
*755 FILLER_1_36
*756 FILLER_1_361
*757 FILLER_1_364
*758 FILLER_1_367
*759 FILLER_1_370
*760 FILLER_1_373
*761 FILLER_1_376
*762 FILLER_1_379
*763 FILLER_1_382
*764 FILLER_1_385
*765 FILLER_1_388
*766 FILLER_1_39
*767 FILLER_1_391
*768 FILLER_1_393
*769 FILLER_1_42
*770 FILLER_1_45
*771 FILLER_1_48
*772 FILLER_1_51
*773 FILLER_1_54
*774 FILLER_1_57
*775 FILLER_1_6
*776 FILLER_1_60
*777 FILLER_1_63
*778 FILLER_1_66
*779 FILLER_1_69
*780 FILLER_1_72
*781 FILLER_1_75
*782 FILLER_1_78
*783 FILLER_1_81
*784 FILLER_1_84
*785 FILLER_1_87
*786 FILLER_1_9
*787 FILLER_1_90
*788 FILLER_1_93
*789 FILLER_1_96
*790 FILLER_1_99
*791 FILLER_2_100
*792 FILLER_2_103
*793 FILLER_2_106
*794 FILLER_2_109
*795 FILLER_2_112
*796 FILLER_2_115
*797 FILLER_2_118
*798 FILLER_2_12
*799 FILLER_2_121
*800 FILLER_2_124
*801 FILLER_2_127
*802 FILLER_2_130
*803 FILLER_2_133
*804 FILLER_2_136
*805 FILLER_2_139
*806 FILLER_2_141
*807 FILLER_2_144
*808 FILLER_2_147
*809 FILLER_2_15
*810 FILLER_2_150
*811 FILLER_2_153
*812 FILLER_2_156
*813 FILLER_2_159
*814 FILLER_2_162
*815 FILLER_2_165
*816 FILLER_2_169
*817 FILLER_2_174
*818 FILLER_2_177
*819 FILLER_2_18
*820 FILLER_2_184
*821 FILLER_2_187
*822 FILLER_2_190
*823 FILLER_2_193
*824 FILLER_2_197
*825 FILLER_2_200
*826 FILLER_2_203
*827 FILLER_2_206
*828 FILLER_2_209
*829 FILLER_2_21
*830 FILLER_2_212
*831 FILLER_2_220
*832 FILLER_2_226
*833 FILLER_2_231
*834 FILLER_2_237
*835 FILLER_2_24
*836 FILLER_2_251
*837 FILLER_2_260
*838 FILLER_2_263
*839 FILLER_2_266
*840 FILLER_2_269
*841 FILLER_2_27
*842 FILLER_2_272
*843 FILLER_2_275
*844 FILLER_2_278
*845 FILLER_2_281
*846 FILLER_2_284
*847 FILLER_2_287
*848 FILLER_2_290
*849 FILLER_2_293
*850 FILLER_2_296
*851 FILLER_2_299
*852 FILLER_2_3
*853 FILLER_2_305
*854 FILLER_2_317
*855 FILLER_2_32
*856 FILLER_2_320
*857 FILLER_2_323
*858 FILLER_2_326
*859 FILLER_2_329
*860 FILLER_2_332
*861 FILLER_2_335
*862 FILLER_2_338
*863 FILLER_2_341
*864 FILLER_2_344
*865 FILLER_2_347
*866 FILLER_2_35
*867 FILLER_2_350
*868 FILLER_2_353
*869 FILLER_2_356
*870 FILLER_2_359
*871 FILLER_2_362
*872 FILLER_2_365
*873 FILLER_2_368
*874 FILLER_2_371
*875 FILLER_2_374
*876 FILLER_2_377
*877 FILLER_2_38
*878 FILLER_2_380
*879 FILLER_2_383
*880 FILLER_2_386
*881 FILLER_2_389
*882 FILLER_2_392
*883 FILLER_2_395
*884 FILLER_2_398
*885 FILLER_2_41
*886 FILLER_2_44
*887 FILLER_2_47
*888 FILLER_2_50
*889 FILLER_2_53
*890 FILLER_2_56
*891 FILLER_2_59
*892 FILLER_2_6
*893 FILLER_2_62
*894 FILLER_2_65
*895 FILLER_2_68
*896 FILLER_2_71
*897 FILLER_2_74
*898 FILLER_2_77
*899 FILLER_2_80
*900 FILLER_2_83
*901 FILLER_2_85
*902 FILLER_2_88
*903 FILLER_2_9
*904 FILLER_2_91
*905 FILLER_2_94
*906 FILLER_2_97
*907 FILLER_3_102
*908 FILLER_3_105
*909 FILLER_3_108
*910 FILLER_3_111
*911 FILLER_3_113
*912 FILLER_3_116
*913 FILLER_3_119
*914 FILLER_3_12
*915 FILLER_3_122
*916 FILLER_3_125
*917 FILLER_3_128
*918 FILLER_3_131
*919 FILLER_3_134
*920 FILLER_3_137
*921 FILLER_3_140
*922 FILLER_3_143
*923 FILLER_3_146
*924 FILLER_3_149
*925 FILLER_3_15
*926 FILLER_3_152
*927 FILLER_3_155
*928 FILLER_3_158
*929 FILLER_3_164
*930 FILLER_3_167
*931 FILLER_3_169
*932 FILLER_3_172
*933 FILLER_3_175
*934 FILLER_3_178
*935 FILLER_3_18
*936 FILLER_3_181
*937 FILLER_3_184
*938 FILLER_3_187
*939 FILLER_3_190
*940 FILLER_3_193
*941 FILLER_3_200
*942 FILLER_3_203
*943 FILLER_3_206
*944 FILLER_3_209
*945 FILLER_3_212
*946 FILLER_3_215
*947 FILLER_3_218
*948 FILLER_3_22
*949 FILLER_3_221
*950 FILLER_3_230
*951 FILLER_3_233
*952 FILLER_3_236
*953 FILLER_3_239
*954 FILLER_3_242
*955 FILLER_3_245
*956 FILLER_3_248
*957 FILLER_3_25
*958 FILLER_3_251
*959 FILLER_3_254
*960 FILLER_3_257
*961 FILLER_3_260
*962 FILLER_3_263
*963 FILLER_3_270
*964 FILLER_3_273
*965 FILLER_3_279
*966 FILLER_3_28
*967 FILLER_3_281
*968 FILLER_3_285
*969 FILLER_3_288
*970 FILLER_3_292
*971 FILLER_3_299
*972 FILLER_3_3
*973 FILLER_3_31
*974 FILLER_3_328
*975 FILLER_3_331
*976 FILLER_3_334
*977 FILLER_3_337
*978 FILLER_3_34
*979 FILLER_3_340
*980 FILLER_3_343
*981 FILLER_3_346
*982 FILLER_3_349
*983 FILLER_3_352
*984 FILLER_3_355
*985 FILLER_3_358
*986 FILLER_3_361
*987 FILLER_3_364
*988 FILLER_3_367
*989 FILLER_3_37
*990 FILLER_3_370
*991 FILLER_3_373
*992 FILLER_3_376
*993 FILLER_3_379
*994 FILLER_3_382
*995 FILLER_3_385
*996 FILLER_3_388
*997 FILLER_3_391
*998 FILLER_3_393
*999 FILLER_3_396
*1000 FILLER_3_40
*1001 FILLER_3_43
*1002 FILLER_3_46
*1003 FILLER_3_49
*1004 FILLER_3_52
*1005 FILLER_3_55
*1006 FILLER_3_57
*1007 FILLER_3_6
*1008 FILLER_3_60
*1009 FILLER_3_63
*1010 FILLER_3_66
*1011 FILLER_3_69
*1012 FILLER_3_72
*1013 FILLER_3_75
*1014 FILLER_3_78
*1015 FILLER_3_81
*1016 FILLER_3_84
*1017 FILLER_3_87
*1018 FILLER_3_9
*1019 FILLER_3_90
*1020 FILLER_3_93
*1021 FILLER_3_96
*1022 FILLER_3_99
*1023 FILLER_4_100
*1024 FILLER_4_103
*1025 FILLER_4_106
*1026 FILLER_4_109
*1027 FILLER_4_112
*1028 FILLER_4_115
*1029 FILLER_4_118
*1030 FILLER_4_12
*1031 FILLER_4_121
*1032 FILLER_4_124
*1033 FILLER_4_127
*1034 FILLER_4_130
*1035 FILLER_4_133
*1036 FILLER_4_136
*1037 FILLER_4_139
*1038 FILLER_4_141
*1039 FILLER_4_144
*1040 FILLER_4_147
*1041 FILLER_4_15
*1042 FILLER_4_150
*1043 FILLER_4_157
*1044 FILLER_4_160
*1045 FILLER_4_163
*1046 FILLER_4_166
*1047 FILLER_4_169
*1048 FILLER_4_172
*1049 FILLER_4_175
*1050 FILLER_4_178
*1051 FILLER_4_18
*1052 FILLER_4_181
*1053 FILLER_4_184
*1054 FILLER_4_187
*1055 FILLER_4_190
*1056 FILLER_4_193
*1057 FILLER_4_202
*1058 FILLER_4_205
*1059 FILLER_4_208
*1060 FILLER_4_21
*1061 FILLER_4_211
*1062 FILLER_4_214
*1063 FILLER_4_217
*1064 FILLER_4_225
*1065 FILLER_4_228
*1066 FILLER_4_231
*1067 FILLER_4_234
*1068 FILLER_4_237
*1069 FILLER_4_24
*1070 FILLER_4_240
*1071 FILLER_4_247
*1072 FILLER_4_250
*1073 FILLER_4_253
*1074 FILLER_4_256
*1075 FILLER_4_259
*1076 FILLER_4_262
*1077 FILLER_4_265
*1078 FILLER_4_268
*1079 FILLER_4_27
*1080 FILLER_4_271
*1081 FILLER_4_274
*1082 FILLER_4_277
*1083 FILLER_4_280
*1084 FILLER_4_283
*1085 FILLER_4_286
*1086 FILLER_4_29
*1087 FILLER_4_297
*1088 FILLER_4_3
*1089 FILLER_4_300
*1090 FILLER_4_304
*1091 FILLER_4_307
*1092 FILLER_4_312
*1093 FILLER_4_315
*1094 FILLER_4_318
*1095 FILLER_4_32
*1096 FILLER_4_321
*1097 FILLER_4_325
*1098 FILLER_4_328
*1099 FILLER_4_331
*1100 FILLER_4_334
*1101 FILLER_4_337
*1102 FILLER_4_340
*1103 FILLER_4_343
*1104 FILLER_4_346
*1105 FILLER_4_349
*1106 FILLER_4_352
*1107 FILLER_4_355
*1108 FILLER_4_358
*1109 FILLER_4_361
*1110 FILLER_4_365
*1111 FILLER_4_368
*1112 FILLER_4_37
*1113 FILLER_4_371
*1114 FILLER_4_374
*1115 FILLER_4_377
*1116 FILLER_4_380
*1117 FILLER_4_383
*1118 FILLER_4_386
*1119 FILLER_4_389
*1120 FILLER_4_392
*1121 FILLER_4_395
*1122 FILLER_4_398
*1123 FILLER_4_40
*1124 FILLER_4_43
*1125 FILLER_4_46
*1126 FILLER_4_49
*1127 FILLER_4_52
*1128 FILLER_4_55
*1129 FILLER_4_58
*1130 FILLER_4_6
*1131 FILLER_4_61
*1132 FILLER_4_64
*1133 FILLER_4_67
*1134 FILLER_4_70
*1135 FILLER_4_73
*1136 FILLER_4_76
*1137 FILLER_4_79
*1138 FILLER_4_82
*1139 FILLER_4_85
*1140 FILLER_4_88
*1141 FILLER_4_9
*1142 FILLER_4_91
*1143 FILLER_4_94
*1144 FILLER_4_97
*1145 FILLER_5_102
*1146 FILLER_5_105
*1147 FILLER_5_108
*1148 FILLER_5_111
*1149 FILLER_5_113
*1150 FILLER_5_116
*1151 FILLER_5_119
*1152 FILLER_5_12
*1153 FILLER_5_122
*1154 FILLER_5_125
*1155 FILLER_5_128
*1156 FILLER_5_131
*1157 FILLER_5_134
*1158 FILLER_5_149
*1159 FILLER_5_15
*1160 FILLER_5_152
*1161 FILLER_5_155
*1162 FILLER_5_158
*1163 FILLER_5_161
*1164 FILLER_5_164
*1165 FILLER_5_167
*1166 FILLER_5_169
*1167 FILLER_5_172
*1168 FILLER_5_175
*1169 FILLER_5_18
*1170 FILLER_5_182
*1171 FILLER_5_185
*1172 FILLER_5_188
*1173 FILLER_5_191
*1174 FILLER_5_194
*1175 FILLER_5_197
*1176 FILLER_5_200
*1177 FILLER_5_208
*1178 FILLER_5_21
*1179 FILLER_5_211
*1180 FILLER_5_214
*1181 FILLER_5_217
*1182 FILLER_5_220
*1183 FILLER_5_223
*1184 FILLER_5_225
*1185 FILLER_5_228
*1186 FILLER_5_231
*1187 FILLER_5_234
*1188 FILLER_5_24
*1189 FILLER_5_246
*1190 FILLER_5_249
*1191 FILLER_5_252
*1192 FILLER_5_255
*1193 FILLER_5_258
*1194 FILLER_5_261
*1195 FILLER_5_264
*1196 FILLER_5_267
*1197 FILLER_5_27
*1198 FILLER_5_270
*1199 FILLER_5_273
*1200 FILLER_5_276
*1201 FILLER_5_279
*1202 FILLER_5_281
*1203 FILLER_5_284
*1204 FILLER_5_287
*1205 FILLER_5_290
*1206 FILLER_5_293
*1207 FILLER_5_296
*1208 FILLER_5_299
*1209 FILLER_5_3
*1210 FILLER_5_30
*1211 FILLER_5_302
*1212 FILLER_5_305
*1213 FILLER_5_308
*1214 FILLER_5_311
*1215 FILLER_5_314
*1216 FILLER_5_317
*1217 FILLER_5_320
*1218 FILLER_5_323
*1219 FILLER_5_326
*1220 FILLER_5_329
*1221 FILLER_5_332
*1222 FILLER_5_335
*1223 FILLER_5_337
*1224 FILLER_5_340
*1225 FILLER_5_343
*1226 FILLER_5_348
*1227 FILLER_5_351
*1228 FILLER_5_354
*1229 FILLER_5_357
*1230 FILLER_5_360
*1231 FILLER_5_363
*1232 FILLER_5_366
*1233 FILLER_5_369
*1234 FILLER_5_372
*1235 FILLER_5_375
*1236 FILLER_5_378
*1237 FILLER_5_381
*1238 FILLER_5_384
*1239 FILLER_5_387
*1240 FILLER_5_390
*1241 FILLER_5_393
*1242 FILLER_5_396
*1243 FILLER_5_42
*1244 FILLER_5_45
*1245 FILLER_5_51
*1246 FILLER_5_54
*1247 FILLER_5_57
*1248 FILLER_5_6
*1249 FILLER_5_60
*1250 FILLER_5_63
*1251 FILLER_5_66
*1252 FILLER_5_69
*1253 FILLER_5_72
*1254 FILLER_5_75
*1255 FILLER_5_78
*1256 FILLER_5_81
*1257 FILLER_5_84
*1258 FILLER_5_87
*1259 FILLER_5_9
*1260 FILLER_5_90
*1261 FILLER_5_93
*1262 FILLER_5_96
*1263 FILLER_5_99
*1264 FILLER_6_100
*1265 FILLER_6_103
*1266 FILLER_6_106
*1267 FILLER_6_109
*1268 FILLER_6_112
*1269 FILLER_6_115
*1270 FILLER_6_118
*1271 FILLER_6_12
*1272 FILLER_6_121
*1273 FILLER_6_124
*1274 FILLER_6_134
*1275 FILLER_6_138
*1276 FILLER_6_144
*1277 FILLER_6_147
*1278 FILLER_6_15
*1279 FILLER_6_150
*1280 FILLER_6_153
*1281 FILLER_6_156
*1282 FILLER_6_159
*1283 FILLER_6_162
*1284 FILLER_6_165
*1285 FILLER_6_168
*1286 FILLER_6_171
*1287 FILLER_6_174
*1288 FILLER_6_177
*1289 FILLER_6_18
*1290 FILLER_6_180
*1291 FILLER_6_183
*1292 FILLER_6_186
*1293 FILLER_6_189
*1294 FILLER_6_197
*1295 FILLER_6_200
*1296 FILLER_6_203
*1297 FILLER_6_206
*1298 FILLER_6_209
*1299 FILLER_6_21
*1300 FILLER_6_212
*1301 FILLER_6_215
*1302 FILLER_6_218
*1303 FILLER_6_226
*1304 FILLER_6_229
*1305 FILLER_6_232
*1306 FILLER_6_235
*1307 FILLER_6_238
*1308 FILLER_6_24
*1309 FILLER_6_241
*1310 FILLER_6_244
*1311 FILLER_6_247
*1312 FILLER_6_250
*1313 FILLER_6_253
*1314 FILLER_6_256
*1315 FILLER_6_259
*1316 FILLER_6_262
*1317 FILLER_6_265
*1318 FILLER_6_268
*1319 FILLER_6_27
*1320 FILLER_6_271
*1321 FILLER_6_274
*1322 FILLER_6_277
*1323 FILLER_6_280
*1324 FILLER_6_283
*1325 FILLER_6_286
*1326 FILLER_6_289
*1327 FILLER_6_29
*1328 FILLER_6_292
*1329 FILLER_6_297
*1330 FILLER_6_3
*1331 FILLER_6_300
*1332 FILLER_6_303
*1333 FILLER_6_306
*1334 FILLER_6_309
*1335 FILLER_6_312
*1336 FILLER_6_315
*1337 FILLER_6_318
*1338 FILLER_6_32
*1339 FILLER_6_321
*1340 FILLER_6_324
*1341 FILLER_6_327
*1342 FILLER_6_330
*1343 FILLER_6_333
*1344 FILLER_6_336
*1345 FILLER_6_339
*1346 FILLER_6_342
*1347 FILLER_6_345
*1348 FILLER_6_348
*1349 FILLER_6_35
*1350 FILLER_6_351
*1351 FILLER_6_354
*1352 FILLER_6_357
*1353 FILLER_6_363
*1354 FILLER_6_365
*1355 FILLER_6_368
*1356 FILLER_6_371
*1357 FILLER_6_377
*1358 FILLER_6_38
*1359 FILLER_6_380
*1360 FILLER_6_383
*1361 FILLER_6_386
*1362 FILLER_6_393
*1363 FILLER_6_396
*1364 FILLER_6_41
*1365 FILLER_6_44
*1366 FILLER_6_47
*1367 FILLER_6_50
*1368 FILLER_6_56
*1369 FILLER_6_59
*1370 FILLER_6_6
*1371 FILLER_6_62
*1372 FILLER_6_65
*1373 FILLER_6_70
*1374 FILLER_6_73
*1375 FILLER_6_76
*1376 FILLER_6_79
*1377 FILLER_6_82
*1378 FILLER_6_85
*1379 FILLER_6_88
*1380 FILLER_6_9
*1381 FILLER_6_91
*1382 FILLER_6_94
*1383 FILLER_6_97
*1384 FILLER_7_104
*1385 FILLER_7_110
*1386 FILLER_7_113
*1387 FILLER_7_116
*1388 FILLER_7_119
*1389 FILLER_7_12
*1390 FILLER_7_122
*1391 FILLER_7_125
*1392 FILLER_7_128
*1393 FILLER_7_131
*1394 FILLER_7_134
*1395 FILLER_7_137
*1396 FILLER_7_140
*1397 FILLER_7_143
*1398 FILLER_7_146
*1399 FILLER_7_149
*1400 FILLER_7_15
*1401 FILLER_7_152
*1402 FILLER_7_155
*1403 FILLER_7_158
*1404 FILLER_7_161
*1405 FILLER_7_164
*1406 FILLER_7_167
*1407 FILLER_7_174
*1408 FILLER_7_177
*1409 FILLER_7_18
*1410 FILLER_7_180
*1411 FILLER_7_183
*1412 FILLER_7_186
*1413 FILLER_7_189
*1414 FILLER_7_192
*1415 FILLER_7_195
*1416 FILLER_7_198
*1417 FILLER_7_201
*1418 FILLER_7_204
*1419 FILLER_7_207
*1420 FILLER_7_21
*1421 FILLER_7_210
*1422 FILLER_7_213
*1423 FILLER_7_216
*1424 FILLER_7_219
*1425 FILLER_7_222
*1426 FILLER_7_225
*1427 FILLER_7_228
*1428 FILLER_7_231
*1429 FILLER_7_234
*1430 FILLER_7_237
*1431 FILLER_7_24
*1432 FILLER_7_240
*1433 FILLER_7_243
*1434 FILLER_7_246
*1435 FILLER_7_249
*1436 FILLER_7_252
*1437 FILLER_7_255
*1438 FILLER_7_258
*1439 FILLER_7_261
*1440 FILLER_7_264
*1441 FILLER_7_267
*1442 FILLER_7_27
*1443 FILLER_7_270
*1444 FILLER_7_273
*1445 FILLER_7_276
*1446 FILLER_7_279
*1447 FILLER_7_281
*1448 FILLER_7_284
*1449 FILLER_7_287
*1450 FILLER_7_290
*1451 FILLER_7_293
*1452 FILLER_7_296
*1453 FILLER_7_299
*1454 FILLER_7_3
*1455 FILLER_7_30
*1456 FILLER_7_302
*1457 FILLER_7_305
*1458 FILLER_7_308
*1459 FILLER_7_311
*1460 FILLER_7_314
*1461 FILLER_7_317
*1462 FILLER_7_320
*1463 FILLER_7_323
*1464 FILLER_7_326
*1465 FILLER_7_329
*1466 FILLER_7_33
*1467 FILLER_7_332
*1468 FILLER_7_335
*1469 FILLER_7_337
*1470 FILLER_7_340
*1471 FILLER_7_343
*1472 FILLER_7_346
*1473 FILLER_7_349
*1474 FILLER_7_352
*1475 FILLER_7_355
*1476 FILLER_7_358
*1477 FILLER_7_36
*1478 FILLER_7_361
*1479 FILLER_7_364
*1480 FILLER_7_367
*1481 FILLER_7_370
*1482 FILLER_7_373
*1483 FILLER_7_376
*1484 FILLER_7_379
*1485 FILLER_7_382
*1486 FILLER_7_385
*1487 FILLER_7_388
*1488 FILLER_7_39
*1489 FILLER_7_391
*1490 FILLER_7_393
*1491 FILLER_7_396
*1492 FILLER_7_42
*1493 FILLER_7_45
*1494 FILLER_7_48
*1495 FILLER_7_51
*1496 FILLER_7_54
*1497 FILLER_7_57
*1498 FILLER_7_6
*1499 FILLER_7_60
*1500 FILLER_7_63
*1501 FILLER_7_66
*1502 FILLER_7_69
*1503 FILLER_7_72
*1504 FILLER_7_75
*1505 FILLER_7_78
*1506 FILLER_7_81
*1507 FILLER_7_84
*1508 FILLER_7_87
*1509 FILLER_7_9
*1510 FILLER_7_90
*1511 FILLER_7_95
*1512 FILLER_7_98
*1513 FILLER_8_103
*1514 FILLER_8_106
*1515 FILLER_8_109
*1516 FILLER_8_112
*1517 FILLER_8_115
*1518 FILLER_8_118
*1519 FILLER_8_12
*1520 FILLER_8_121
*1521 FILLER_8_124
*1522 FILLER_8_127
*1523 FILLER_8_130
*1524 FILLER_8_133
*1525 FILLER_8_136
*1526 FILLER_8_139
*1527 FILLER_8_141
*1528 FILLER_8_144
*1529 FILLER_8_147
*1530 FILLER_8_15
*1531 FILLER_8_150
*1532 FILLER_8_153
*1533 FILLER_8_156
*1534 FILLER_8_164
*1535 FILLER_8_167
*1536 FILLER_8_170
*1537 FILLER_8_173
*1538 FILLER_8_176
*1539 FILLER_8_179
*1540 FILLER_8_18
*1541 FILLER_8_182
*1542 FILLER_8_185
*1543 FILLER_8_188
*1544 FILLER_8_191
*1545 FILLER_8_194
*1546 FILLER_8_197
*1547 FILLER_8_200
*1548 FILLER_8_203
*1549 FILLER_8_208
*1550 FILLER_8_21
*1551 FILLER_8_211
*1552 FILLER_8_214
*1553 FILLER_8_217
*1554 FILLER_8_220
*1555 FILLER_8_223
*1556 FILLER_8_226
*1557 FILLER_8_229
*1558 FILLER_8_232
*1559 FILLER_8_235
*1560 FILLER_8_238
*1561 FILLER_8_24
*1562 FILLER_8_241
*1563 FILLER_8_244
*1564 FILLER_8_247
*1565 FILLER_8_250
*1566 FILLER_8_253
*1567 FILLER_8_256
*1568 FILLER_8_259
*1569 FILLER_8_262
*1570 FILLER_8_265
*1571 FILLER_8_268
*1572 FILLER_8_27
*1573 FILLER_8_271
*1574 FILLER_8_277
*1575 FILLER_8_280
*1576 FILLER_8_283
*1577 FILLER_8_286
*1578 FILLER_8_289
*1579 FILLER_8_29
*1580 FILLER_8_292
*1581 FILLER_8_295
*1582 FILLER_8_298
*1583 FILLER_8_3
*1584 FILLER_8_301
*1585 FILLER_8_304
*1586 FILLER_8_307
*1587 FILLER_8_309
*1588 FILLER_8_312
*1589 FILLER_8_315
*1590 FILLER_8_318
*1591 FILLER_8_32
*1592 FILLER_8_321
*1593 FILLER_8_324
*1594 FILLER_8_327
*1595 FILLER_8_330
*1596 FILLER_8_333
*1597 FILLER_8_336
*1598 FILLER_8_339
*1599 FILLER_8_342
*1600 FILLER_8_345
*1601 FILLER_8_348
*1602 FILLER_8_35
*1603 FILLER_8_351
*1604 FILLER_8_354
*1605 FILLER_8_357
*1606 FILLER_8_360
*1607 FILLER_8_363
*1608 FILLER_8_365
*1609 FILLER_8_368
*1610 FILLER_8_371
*1611 FILLER_8_374
*1612 FILLER_8_377
*1613 FILLER_8_38
*1614 FILLER_8_380
*1615 FILLER_8_383
*1616 FILLER_8_386
*1617 FILLER_8_389
*1618 FILLER_8_392
*1619 FILLER_8_395
*1620 FILLER_8_398
*1621 FILLER_8_41
*1622 FILLER_8_44
*1623 FILLER_8_47
*1624 FILLER_8_50
*1625 FILLER_8_53
*1626 FILLER_8_56
*1627 FILLER_8_59
*1628 FILLER_8_6
*1629 FILLER_8_62
*1630 FILLER_8_65
*1631 FILLER_8_74
*1632 FILLER_8_82
*1633 FILLER_8_88
*1634 FILLER_8_9
*1635 FILLER_8_92
*1636 FILLER_8_98
*1637 FILLER_9_102
*1638 FILLER_9_105
*1639 FILLER_9_108
*1640 FILLER_9_111
*1641 FILLER_9_113
*1642 FILLER_9_116
*1643 FILLER_9_119
*1644 FILLER_9_12
*1645 FILLER_9_122
*1646 FILLER_9_125
*1647 FILLER_9_128
*1648 FILLER_9_131
*1649 FILLER_9_134
*1650 FILLER_9_137
*1651 FILLER_9_140
*1652 FILLER_9_143
*1653 FILLER_9_146
*1654 FILLER_9_149
*1655 FILLER_9_15
*1656 FILLER_9_152
*1657 FILLER_9_172
*1658 FILLER_9_18
*1659 FILLER_9_189
*1660 FILLER_9_193
*1661 FILLER_9_199
*1662 FILLER_9_21
*1663 FILLER_9_214
*1664 FILLER_9_217
*1665 FILLER_9_223
*1666 FILLER_9_228
*1667 FILLER_9_234
*1668 FILLER_9_237
*1669 FILLER_9_24
*1670 FILLER_9_240
*1671 FILLER_9_243
*1672 FILLER_9_248
*1673 FILLER_9_251
*1674 FILLER_9_254
*1675 FILLER_9_257
*1676 FILLER_9_260
*1677 FILLER_9_265
*1678 FILLER_9_269