*SPEF "ieee 1481-1999"
*DESIGN "S_term_DSP"
*DATE "12:01:16 Thursday May 08, 2025"
*VENDOR "The OpenROAD Project"
*PROGRAM "OpenROAD"
*VERSION "87af90f72f3f9be1fdfa1d886f0dd8d8b8f34694"
*DESIGN_FLOW "NAME_SCOPE LOCAL" "PIN_CAP NONE"
*DIVIDER /
*DELIMITER :
*BUS_DELIMITER []
*T_UNIT 1 NS
*C_UNIT 1 PF
*R_UNIT 1 OHM
*L_UNIT 1 HENRY

*NAME_MAP
*1 FrameData[0]
*2 FrameData[10]
*3 FrameData[11]
*4 FrameData[12]
*5 FrameData[13]
*6 FrameData[14]
*7 FrameData[15]
*8 FrameData[16]
*9 FrameData[17]
*10 FrameData[18]
*11 FrameData[19]
*12 FrameData[1]
*13 FrameData[20]
*14 FrameData[21]
*15 FrameData[22]
*16 FrameData[23]
*17 FrameData[24]
*18 FrameData[25]
*19 FrameData[26]
*20 FrameData[27]
*21 FrameData[28]
*22 FrameData[29]
*23 FrameData[2]
*24 FrameData[30]
*25 FrameData[31]
*26 FrameData[3]
*27 FrameData[4]
*28 FrameData[5]
*29 FrameData[6]
*30 FrameData[7]
*31 FrameData[8]
*32 FrameData[9]
*33 FrameData_O[0]
*34 FrameData_O[10]
*35 FrameData_O[11]
*36 FrameData_O[12]
*37 FrameData_O[13]
*38 FrameData_O[14]
*39 FrameData_O[15]
*40 FrameData_O[16]
*41 FrameData_O[17]
*42 FrameData_O[18]
*43 FrameData_O[19]
*44 FrameData_O[1]
*45 FrameData_O[20]
*46 FrameData_O[21]
*47 FrameData_O[22]
*48 FrameData_O[23]
*49 FrameData_O[24]
*50 FrameData_O[25]
*51 FrameData_O[26]
*52 FrameData_O[27]
*53 FrameData_O[28]
*54 FrameData_O[29]
*55 FrameData_O[2]
*56 FrameData_O[30]
*57 FrameData_O[31]
*58 FrameData_O[3]
*59 FrameData_O[4]
*60 FrameData_O[5]
*61 FrameData_O[6]
*62 FrameData_O[7]
*63 FrameData_O[8]
*64 FrameData_O[9]
*65 FrameStrobe[0]
*66 FrameStrobe[10]
*67 FrameStrobe[11]
*68 FrameStrobe[12]
*69 FrameStrobe[13]
*70 FrameStrobe[14]
*71 FrameStrobe[15]
*72 FrameStrobe[16]
*73 FrameStrobe[17]
*74 FrameStrobe[18]
*75 FrameStrobe[19]
*76 FrameStrobe[1]
*77 FrameStrobe[2]
*78 FrameStrobe[3]
*79 FrameStrobe[4]
*80 FrameStrobe[5]
*81 FrameStrobe[6]
*82 FrameStrobe[7]
*83 FrameStrobe[8]
*84 FrameStrobe[9]
*85 FrameStrobe_O[0]
*86 FrameStrobe_O[10]
*87 FrameStrobe_O[11]
*88 FrameStrobe_O[12]
*89 FrameStrobe_O[13]
*90 FrameStrobe_O[14]
*91 FrameStrobe_O[15]
*92 FrameStrobe_O[16]
*93 FrameStrobe_O[17]
*94 FrameStrobe_O[18]
*95 FrameStrobe_O[19]
*96 FrameStrobe_O[1]
*97 FrameStrobe_O[2]
*98 FrameStrobe_O[3]
*99 FrameStrobe_O[4]
*100 FrameStrobe_O[5]
*101 FrameStrobe_O[6]
*102 FrameStrobe_O[7]
*103 FrameStrobe_O[8]
*104 FrameStrobe_O[9]
*105 N1BEG[0]
*106 N1BEG[1]
*107 N1BEG[2]
*108 N1BEG[3]
*109 N2BEG[0]
*110 N2BEG[1]
*111 N2BEG[2]
*112 N2BEG[3]
*113 N2BEG[4]
*114 N2BEG[5]
*115 N2BEG[6]
*116 N2BEG[7]
*117 N2BEGb[0]
*118 N2BEGb[1]
*119 N2BEGb[2]
*120 N2BEGb[3]
*121 N2BEGb[4]
*122 N2BEGb[5]
*123 N2BEGb[6]
*124 N2BEGb[7]
*125 N4BEG[0]
*126 N4BEG[10]
*127 N4BEG[11]
*128 N4BEG[12]
*129 N4BEG[13]
*130 N4BEG[14]
*131 N4BEG[15]
*132 N4BEG[1]
*133 N4BEG[2]
*134 N4BEG[3]
*135 N4BEG[4]
*136 N4BEG[5]
*137 N4BEG[6]
*138 N4BEG[7]
*139 N4BEG[8]
*140 N4BEG[9]
*141 NN4BEG[0]
*142 NN4BEG[10]
*143 NN4BEG[11]
*144 NN4BEG[12]
*145 NN4BEG[13]
*146 NN4BEG[14]
*147 NN4BEG[15]
*148 NN4BEG[1]
*149 NN4BEG[2]
*150 NN4BEG[3]
*151 NN4BEG[4]
*152 NN4BEG[5]
*153 NN4BEG[6]
*154 NN4BEG[7]
*155 NN4BEG[8]
*156 NN4BEG[9]
*157 S1END[0]
*158 S1END[1]
*159 S1END[2]
*160 S1END[3]
*161 S2END[0]
*162 S2END[1]
*163 S2END[2]
*164 S2END[3]
*165 S2END[4]
*166 S2END[5]
*167 S2END[6]
*168 S2END[7]
*169 S2MID[0]
*170 S2MID[1]
*171 S2MID[2]
*172 S2MID[3]
*173 S2MID[4]
*174 S2MID[5]
*175 S2MID[6]
*176 S2MID[7]
*177 S4END[0]
*178 S4END[10]
*179 S4END[11]
*180 S4END[12]
*181 S4END[13]
*182 S4END[14]
*183 S4END[15]
*184 S4END[1]
*185 S4END[2]
*186 S4END[3]
*187 S4END[4]
*188 S4END[5]
*189 S4END[6]
*190 S4END[7]
*191 S4END[8]
*192 S4END[9]
*193 SS4END[0]
*194 SS4END[10]
*195 SS4END[11]
*196 SS4END[12]
*197 SS4END[13]
*198 SS4END[14]
*199 SS4END[15]
*200 SS4END[1]
*201 SS4END[2]
*202 SS4END[3]
*203 SS4END[4]
*204 SS4END[5]
*205 SS4END[6]
*206 SS4END[7]
*207 SS4END[8]
*208 SS4END[9]
*209 UserCLK
*210 UserCLKo
*213 net1
*214 net10
*215 net100
*216 net101
*217 net102
*218 net103
*219 net104
*220 net105
*221 net11
*222 net12
*223 net13
*224 net14
*225 net15
*226 net16
*227 net17
*228 net18
*229 net19
*230 net2
*231 net20
*232 net21
*233 net22
*234 net23
*235 net24
*236 net25
*237 net26
*238 net27
*239 net28
*240 net29
*241 net3
*242 net30
*243 net31
*244 net32
*245 net33
*246 net34
*247 net35
*248 net36
*249 net37
*250 net38
*251 net39
*252 net4
*253 net40
*254 net41
*255 net42
*256 net43
*257 net44
*258 net45
*259 net46
*260 net47
*261 net48
*262 net49
*263 net5
*264 net50
*265 net51
*266 net52
*267 net53
*268 net54
*269 net55
*270 net56
*271 net57
*272 net58
*273 net59
*274 net6
*275 net60
*276 net61
*277 net62
*278 net63
*279 net64
*280 net65
*281 net66
*282 net67
*283 net68
*284 net69
*285 net7
*286 net70
*287 net71
*288 net72
*289 net73
*290 net74
*291 net75
*292 net76
*293 net77
*294 net78
*295 net79
*296 net8
*297 net80
*298 net81
*299 net82
*300 net83
*301 net84
*302 net85
*303 net86
*304 net87
*305 net88
*306 net89
*307 net9
*308 net90
*309 net91
*310 net92
*311 net93
*312 net94
*313 net95
*314 net96
*315 net97
*316 net98
*317 net99
*318 ANTENNA_1
*319 ANTENNA_10
*320 ANTENNA_11
*321 ANTENNA_12
*322 ANTENNA_13
*323 ANTENNA_14
*324 ANTENNA_15
*325 ANTENNA_16
*326 ANTENNA_17
*327 ANTENNA_18
*328 ANTENNA_19
*329 ANTENNA_2
*330 ANTENNA_20
*331 ANTENNA_21
*332 ANTENNA_22
*333 ANTENNA_23
*334 ANTENNA_24
*335 ANTENNA_25
*336 ANTENNA_26
*337 ANTENNA_27
*338 ANTENNA_28
*339 ANTENNA_29
*340 ANTENNA_3
*341 ANTENNA_30
*342 ANTENNA_31
*343 ANTENNA_32
*344 ANTENNA_4
*345 ANTENNA_5
*346 ANTENNA_6
*347 ANTENNA_7
*348 ANTENNA_8
*349 ANTENNA_9
*350 FILLER_0_100
*351 FILLER_0_103
*352 FILLER_0_106
*353 FILLER_0_109
*354 FILLER_0_113
*355 FILLER_0_116
*356 FILLER_0_119
*357 FILLER_0_12
*358 FILLER_0_122
*359 FILLER_0_125
*360 FILLER_0_128
*361 FILLER_0_131
*362 FILLER_0_134
*363 FILLER_0_137
*364 FILLER_0_141
*365 FILLER_0_144
*366 FILLER_0_147
*367 FILLER_0_15
*368 FILLER_0_150
*369 FILLER_0_153
*370 FILLER_0_156
*371 FILLER_0_159
*372 FILLER_0_162
*373 FILLER_0_165
*374 FILLER_0_169
*375 FILLER_0_172
*376 FILLER_0_175
*377 FILLER_0_178
*378 FILLER_0_18
*379 FILLER_0_181
*380 FILLER_0_184
*381 FILLER_0_187
*382 FILLER_0_190
*383 FILLER_0_193
*384 FILLER_0_197
*385 FILLER_0_200
*386 FILLER_0_203
*387 FILLER_0_206
*388 FILLER_0_209
*389 FILLER_0_21
*390 FILLER_0_212
*391 FILLER_0_215
*392 FILLER_0_218
*393 FILLER_0_221
*394 FILLER_0_225
*395 FILLER_0_228
*396 FILLER_0_231
*397 FILLER_0_234
*398 FILLER_0_237
*399 FILLER_0_24
*400 FILLER_0_240
*401 FILLER_0_243
*402 FILLER_0_246
*403 FILLER_0_249
*404 FILLER_0_253
*405 FILLER_0_256
*406 FILLER_0_259
*407 FILLER_0_262
*408 FILLER_0_265
*409 FILLER_0_268
*410 FILLER_0_27
*411 FILLER_0_271
*412 FILLER_0_274
*413 FILLER_0_277
*414 FILLER_0_281
*415 FILLER_0_284
*416 FILLER_0_287
*417 FILLER_0_29
*418 FILLER_0_290
*419 FILLER_0_293
*420 FILLER_0_296
*421 FILLER_0_299
*422 FILLER_0_3
*423 FILLER_0_302
*424 FILLER_0_305
*425 FILLER_0_309
*426 FILLER_0_312
*427 FILLER_0_315
*428 FILLER_0_318
*429 FILLER_0_32
*430 FILLER_0_321
*431 FILLER_0_324
*432 FILLER_0_327
*433 FILLER_0_330
*434 FILLER_0_333
*435 FILLER_0_337
*436 FILLER_0_340
*437 FILLER_0_343
*438 FILLER_0_346
*439 FILLER_0_349
*440 FILLER_0_35
*441 FILLER_0_352
*442 FILLER_0_355
*443 FILLER_0_358
*444 FILLER_0_361
*445 FILLER_0_365
*446 FILLER_0_368
*447 FILLER_0_371
*448 FILLER_0_374
*449 FILLER_0_377
*450 FILLER_0_38
*451 FILLER_0_380
*452 FILLER_0_383
*453 FILLER_0_393
*454 FILLER_0_41
*455 FILLER_0_44
*456 FILLER_0_47
*457 FILLER_0_50
*458 FILLER_0_53
*459 FILLER_0_57
*460 FILLER_0_6
*461 FILLER_0_60
*462 FILLER_0_63
*463 FILLER_0_66
*464 FILLER_0_69
*465 FILLER_0_72
*466 FILLER_0_75
*467 FILLER_0_78
*468 FILLER_0_81
*469 FILLER_0_85
*470 FILLER_0_88
*471 FILLER_0_9
*472 FILLER_0_91
*473 FILLER_0_94
*474 FILLER_0_97
*475 FILLER_10_101
*476 FILLER_10_104
*477 FILLER_10_110
*478 FILLER_10_116
*479 FILLER_10_12
*480 FILLER_10_122
*481 FILLER_10_125
*482 FILLER_10_128
*483 FILLER_10_134
*484 FILLER_10_141
*485 FILLER_10_144
*486 FILLER_10_149
*487 FILLER_10_15
*488 FILLER_10_152
*489 FILLER_10_158
*490 FILLER_10_161
*491 FILLER_10_164
*492 FILLER_10_167
*493 FILLER_10_170
*494 FILLER_10_173
*495 FILLER_10_176
*496 FILLER_10_179
*497 FILLER_10_18
*498 FILLER_10_182
*499 FILLER_10_185
*500 FILLER_10_188
*501 FILLER_10_191
*502 FILLER_10_194
*503 FILLER_10_197
*504 FILLER_10_200
*505 FILLER_10_203
*506 FILLER_10_206
*507 FILLER_10_209
*508 FILLER_10_21
*509 FILLER_10_212
*510 FILLER_10_215
*511 FILLER_10_218
*512 FILLER_10_221
*513 FILLER_10_224
*514 FILLER_10_227
*515 FILLER_10_230
*516 FILLER_10_233
*517 FILLER_10_236
*518 FILLER_10_239
*519 FILLER_10_242
*520 FILLER_10_245
*521 FILLER_10_248
*522 FILLER_10_251
*523 FILLER_10_253
*524 FILLER_10_256
*525 FILLER_10_259
*526 FILLER_10_26
*527 FILLER_10_262
*528 FILLER_10_265
*529 FILLER_10_268
*530 FILLER_10_271
*531 FILLER_10_274
*532 FILLER_10_277
*533 FILLER_10_280
*534 FILLER_10_283
*535 FILLER_10_286
*536 FILLER_10_289
*537 FILLER_10_292
*538 FILLER_10_295
*539 FILLER_10_298
*540 FILLER_10_3
*541 FILLER_10_301
*542 FILLER_10_304
*543 FILLER_10_307
*544 FILLER_10_309
*545 FILLER_10_312
*546 FILLER_10_315
*547 FILLER_10_318
*548 FILLER_10_321
*549 FILLER_10_324
*550 FILLER_10_327
*551 FILLER_10_33
*552 FILLER_10_330
*553 FILLER_10_333
*554 FILLER_10_336
*555 FILLER_10_339
*556 FILLER_10_342
*557 FILLER_10_345
*558 FILLER_10_348
*559 FILLER_10_351
*560 FILLER_10_360
*561 FILLER_10_363
*562 FILLER_10_365
*563 FILLER_10_371
*564 FILLER_10_374
*565 FILLER_10_377
*566 FILLER_10_38
*567 FILLER_10_41
*568 FILLER_10_44
*569 FILLER_10_50
*570 FILLER_10_53
*571 FILLER_10_59
*572 FILLER_10_6
*573 FILLER_10_65
*574 FILLER_10_68
*575 FILLER_10_74
*576 FILLER_10_77
*577 FILLER_10_83
*578 FILLER_10_85
*579 FILLER_10_9
*580 FILLER_10_92
*581 FILLER_10_98
*582 FILLER_11_113
*583 FILLER_11_12
*584 FILLER_11_141
*585 FILLER_11_15
*586 FILLER_11_169
*587 FILLER_11_180
*588 FILLER_11_183
*589 FILLER_11_186
*590 FILLER_11_189
*591 FILLER_11_192
*592 FILLER_11_195
*593 FILLER_11_197
*594 FILLER_11_200
*595 FILLER_11_203
*596 FILLER_11_206
*597 FILLER_11_209
*598 FILLER_11_212
*599 FILLER_11_215
*600 FILLER_11_218
*601 FILLER_11_221
*602 FILLER_11_225
*603 FILLER_11_228
*604 FILLER_11_231
*605 FILLER_11_234
*606 FILLER_11_237
*607 FILLER_11_240
*608 FILLER_11_243
*609 FILLER_11_246
*610 FILLER_11_249
*611 FILLER_11_253
*612 FILLER_11_256
*613 FILLER_11_259
*614 FILLER_11_262
*615 FILLER_11_265
*616 FILLER_11_268
*617 FILLER_11_271
*618 FILLER_11_274
*619 FILLER_11_277
*620 FILLER_11_281
*621 FILLER_11_284
*622 FILLER_11_287
*623 FILLER_11_29
*624 FILLER_11_290
*625 FILLER_11_293
*626 FILLER_11_296
*627 FILLER_11_299
*628 FILLER_11_3
*629 FILLER_11_302
*630 FILLER_11_305
*631 FILLER_11_309
*632 FILLER_11_312
*633 FILLER_11_315
*634 FILLER_11_318
*635 FILLER_11_321
*636 FILLER_11_324
*637 FILLER_11_327
*638 FILLER_11_330
*639 FILLER_11_334
*640 FILLER_11_361
*641 FILLER_11_389
*642 FILLER_11_401
*643 FILLER_11_57
*644 FILLER_11_6
*645 FILLER_11_85
*646 FILLER_11_9
*647 FILLER_1_102
*648 FILLER_1_105
*649 FILLER_1_108
*650 FILLER_1_111
*651 FILLER_1_113
*652 FILLER_1_116
*653 FILLER_1_119
*654 FILLER_1_12
*655 FILLER_1_122
*656 FILLER_1_125
*657 FILLER_1_128
*658 FILLER_1_131
*659 FILLER_1_134
*660 FILLER_1_137
*661 FILLER_1_140
*662 FILLER_1_143
*663 FILLER_1_146
*664 FILLER_1_149
*665 FILLER_1_15
*666 FILLER_1_152
*667 FILLER_1_155
*668 FILLER_1_158
*669 FILLER_1_161
*670 FILLER_1_164
*671 FILLER_1_167
*672 FILLER_1_169
*673 FILLER_1_172
*674 FILLER_1_175
*675 FILLER_1_178
*676 FILLER_1_18
*677 FILLER_1_181
*678 FILLER_1_184
*679 FILLER_1_187
*680 FILLER_1_190
*681 FILLER_1_193
*682 FILLER_1_196
*683 FILLER_1_199
*684 FILLER_1_202
*685 FILLER_1_205
*686 FILLER_1_208
*687 FILLER_1_21
*688 FILLER_1_211
*689 FILLER_1_214
*690 FILLER_1_217
*691 FILLER_1_220
*692 FILLER_1_223
*693 FILLER_1_225
*694 FILLER_1_228
*695 FILLER_1_231
*696 FILLER_1_234
*697 FILLER_1_237
*698 FILLER_1_24
*699 FILLER_1_240
*700 FILLER_1_243
*701 FILLER_1_246
*702 FILLER_1_249
*703 FILLER_1_252
*704 FILLER_1_255
*705 FILLER_1_258
*706 FILLER_1_261
*707 FILLER_1_264
*708 FILLER_1_267
*709 FILLER_1_27
*710 FILLER_1_270
*711 FILLER_1_273
*712 FILLER_1_276
*713 FILLER_1_279
*714 FILLER_1_281
*715 FILLER_1_284
*716 FILLER_1_287
*717 FILLER_1_290
*718 FILLER_1_293
*719 FILLER_1_296
*720 FILLER_1_299
*721 FILLER_1_3
*722 FILLER_1_30
*723 FILLER_1_302
*724 FILLER_1_305
*725 FILLER_1_308
*726 FILLER_1_311
*727 FILLER_1_314
*728 FILLER_1_317
*729 FILLER_1_320
*730 FILLER_1_323
*731 FILLER_1_326
*732 FILLER_1_329
*733 FILLER_1_33
*734 FILLER_1_332
*735 FILLER_1_335
*736 FILLER_1_337
*737 FILLER_1_340
*738 FILLER_1_343
*739 FILLER_1_346
*740 FILLER_1_349
*741 FILLER_1_352
*742 FILLER_1_355
*743 FILLER_1_358
*744 FILLER_1_36
*745 FILLER_1_361
*746 FILLER_1_364
*747 FILLER_1_367
*748 FILLER_1_370
*749 FILLER_1_373
*750 FILLER_1_376
*751 FILLER_1_379
*752 FILLER_1_382
*753 FILLER_1_385
*754 FILLER_1_388
*755 FILLER_1_39
*756 FILLER_1_391
*757 FILLER_1_393
*758 FILLER_1_42
*759 FILLER_1_45
*760 FILLER_1_48
*761 FILLER_1_51
*762 FILLER_1_54
*763 FILLER_1_57
*764 FILLER_1_6
*765 FILLER_1_60
*766 FILLER_1_63
*767 FILLER_1_66
*768 FILLER_1_69
*769 FILLER_1_72
*770 FILLER_1_75
*771 FILLER_1_78
*772 FILLER_1_81
*773 FILLER_1_84
*774 FILLER_1_87
*775 FILLER_1_9
*776 FILLER_1_90
*777 FILLER_1_93
*778 FILLER_1_96
*779 FILLER_1_99
*780 FILLER_2_100
*781 FILLER_2_103
*782 FILLER_2_106
*783 FILLER_2_109
*784 FILLER_2_112
*785 FILLER_2_115
*786 FILLER_2_118
*787 FILLER_2_12
*788 FILLER_2_121
*789 FILLER_2_124
*790 FILLER_2_127
*791 FILLER_2_130
*792 FILLER_2_133
*793 FILLER_2_136
*794 FILLER_2_139
*795 FILLER_2_141
*796 FILLER_2_144
*797 FILLER_2_147
*798 FILLER_2_15
*799 FILLER_2_150
*800 FILLER_2_153
*801 FILLER_2_156
*802 FILLER_2_159
*803 FILLER_2_162
*804 FILLER_2_165
*805 FILLER_2_168
*806 FILLER_2_171
*807 FILLER_2_174
*808 FILLER_2_177
*809 FILLER_2_18
*810 FILLER_2_180
*811 FILLER_2_186
*812 FILLER_2_189
*813 FILLER_2_192
*814 FILLER_2_195
*815 FILLER_2_197
*816 FILLER_2_200
*817 FILLER_2_203
*818 FILLER_2_206
*819 FILLER_2_209
*820 FILLER_2_21
*821 FILLER_2_212
*822 FILLER_2_215
*823 FILLER_2_218
*824 FILLER_2_221
*825 FILLER_2_229
*826 FILLER_2_232
*827 FILLER_2_235
*828 FILLER_2_238
*829 FILLER_2_24
*830 FILLER_2_241
*831 FILLER_2_244
*832 FILLER_2_247
*833 FILLER_2_250
*834 FILLER_2_253
*835 FILLER_2_256
*836 FILLER_2_259
*837 FILLER_2_267
*838 FILLER_2_27
*839 FILLER_2_270
*840 FILLER_2_275
*841 FILLER_2_287
*842 FILLER_2_29
*843 FILLER_2_290
*844 FILLER_2_293
*845 FILLER_2_296
*846 FILLER_2_299
*847 FILLER_2_3
*848 FILLER_2_302
*849 FILLER_2_305
*850 FILLER_2_309
*851 FILLER_2_312
*852 FILLER_2_315
*853 FILLER_2_318
*854 FILLER_2_32
*855 FILLER_2_321
*856 FILLER_2_324
*857 FILLER_2_327
*858 FILLER_2_330
*859 FILLER_2_333
*860 FILLER_2_336
*861 FILLER_2_339
*862 FILLER_2_342
*863 FILLER_2_345
*864 FILLER_2_348
*865 FILLER_2_35
*866 FILLER_2_351
*867 FILLER_2_354
*868 FILLER_2_357
*869 FILLER_2_360
*870 FILLER_2_363
*871 FILLER_2_365
*872 FILLER_2_368
*873 FILLER_2_371
*874 FILLER_2_374
*875 FILLER_2_377
*876 FILLER_2_38
*877 FILLER_2_380
*878 FILLER_2_383
*879 FILLER_2_386
*880 FILLER_2_389
*881 FILLER_2_392
*882 FILLER_2_395
*883 FILLER_2_398
*884 FILLER_2_41
*885 FILLER_2_44
*886 FILLER_2_47
*887 FILLER_2_50
*888 FILLER_2_53
*889 FILLER_2_56
*890 FILLER_2_59
*891 FILLER_2_6
*892 FILLER_2_62
*893 FILLER_2_65
*894 FILLER_2_68
*895 FILLER_2_71
*896 FILLER_2_74
*897 FILLER_2_77
*898 FILLER_2_80
*899 FILLER_2_83
*900 FILLER_2_85
*901 FILLER_2_88
*902 FILLER_2_9
*903 FILLER_2_91
*904 FILLER_2_94
*905 FILLER_2_97
*906 FILLER_3_102
*907 FILLER_3_105
*908 FILLER_3_108
*909 FILLER_3_111
*910 FILLER_3_113
*911 FILLER_3_116
*912 FILLER_3_119
*913 FILLER_3_12
*914 FILLER_3_122
*915 FILLER_3_125
*916 FILLER_3_128
*917 FILLER_3_131
*918 FILLER_3_134
*919 FILLER_3_137
*920 FILLER_3_140
*921 FILLER_3_143
*922 FILLER_3_146
*923 FILLER_3_149
*924 FILLER_3_15
*925 FILLER_3_152
*926 FILLER_3_159
*927 FILLER_3_162
*928 FILLER_3_172
*929 FILLER_3_176
*930 FILLER_3_18
*931 FILLER_3_184
*932 FILLER_3_196
*933 FILLER_3_202
*934 FILLER_3_205
*935 FILLER_3_208
*936 FILLER_3_21
*937 FILLER_3_213
*938 FILLER_3_216
*939 FILLER_3_228
*940 FILLER_3_239
*941 FILLER_3_24
*942 FILLER_3_242
*943 FILLER_3_245
*944 FILLER_3_248
*945 FILLER_3_251
*946 FILLER_3_254
*947 FILLER_3_257
*948 FILLER_3_260
*949 FILLER_3_263
*950 FILLER_3_266
*951 FILLER_3_269
*952 FILLER_3_27
*953 FILLER_3_272
*954 FILLER_3_275
*955 FILLER_3_278
*956 FILLER_3_284
*957 FILLER_3_287
*958 FILLER_3_290
*959 FILLER_3_293
*960 FILLER_3_296
*961 FILLER_3_299
*962 FILLER_3_3
*963 FILLER_3_30
*964 FILLER_3_302
*965 FILLER_3_305
*966 FILLER_3_308
*967 FILLER_3_311
*968 FILLER_3_314
*969 FILLER_3_317
*970 FILLER_3_320
*971 FILLER_3_323
*972 FILLER_3_326
*973 FILLER_3_329
*974 FILLER_3_33
*975 FILLER_3_332
*976 FILLER_3_335
*977 FILLER_3_337
*978 FILLER_3_340
*979 FILLER_3_343
*980 FILLER_3_346
*981 FILLER_3_349
*982 FILLER_3_352
*983 FILLER_3_355
*984 FILLER_3_358
*985 FILLER_3_36
*986 FILLER_3_361
*987 FILLER_3_364
*988 FILLER_3_367
*989 FILLER_3_370
*990 FILLER_3_373
*991 FILLER_3_376
*992 FILLER_3_379
*993 FILLER_3_382
*994 FILLER_3_385
*995 FILLER_3_388
*996 FILLER_3_39
*997 FILLER_3_391
*998 FILLER_3_393
*999 FILLER_3_396
*1000 FILLER_3_42
*1001 FILLER_3_45
*1002 FILLER_3_48
*1003 FILLER_3_51
*1004 FILLER_3_54
*1005 FILLER_3_57
*1006 FILLER_3_6
*1007 FILLER_3_60
*1008 FILLER_3_63
*1009 FILLER_3_66
*1010 FILLER_3_69
*1011 FILLER_3_72
*1012 FILLER_3_75
*1013 FILLER_3_78
*1014 FILLER_3_81
*1015 FILLER_3_84
*1016 FILLER_3_87
*1017 FILLER_3_9
*1018 FILLER_3_90
*1019 FILLER_3_93
*1020 FILLER_3_96
*1021 FILLER_3_99
*1022 FILLER_4_100
*1023 FILLER_4_103
*1024 FILLER_4_106
*1025 FILLER_4_109
*1026 FILLER_4_112
*1027 FILLER_4_115
*1028 FILLER_4_118
*1029 FILLER_4_12
*1030 FILLER_4_121
*1031 FILLER_4_124
*1032 FILLER_4_127
*1033 FILLER_4_130
*1034 FILLER_4_133
*1035 FILLER_4_136
*1036 FILLER_4_139
*1037 FILLER_4_141
*1038 FILLER_4_144
*1039 FILLER_4_147
*1040 FILLER_4_15
*1041 FILLER_4_150
*1042 FILLER_4_153
*1043 FILLER_4_156
*1044 FILLER_4_159
*1045 FILLER_4_162
*1046 FILLER_4_165
*1047 FILLER_4_168
*1048 FILLER_4_171
*1049 FILLER_4_174
*1050 FILLER_4_177
*1051 FILLER_4_18
*1052 FILLER_4_180
*1053 FILLER_4_183
*1054 FILLER_4_186
*1055 FILLER_4_189
*1056 FILLER_4_192
*1057 FILLER_4_195
*1058 FILLER_4_197
*1059 FILLER_4_200
*1060 FILLER_4_203
*1061 FILLER_4_206
*1062 FILLER_4_209
*1063 FILLER_4_21
*1064 FILLER_4_212
*1065 FILLER_4_215
*1066 FILLER_4_223
*1067 FILLER_4_231
*1068 FILLER_4_234
*1069 FILLER_4_237
*1070 FILLER_4_24
*1071 FILLER_4_240
*1072 FILLER_4_243
*1073 FILLER_4_246
*1074 FILLER_4_249
*1075 FILLER_4_253
*1076 FILLER_4_256
*1077 FILLER_4_259
*1078 FILLER_4_262
*1079 FILLER_4_265
*1080 FILLER_4_268
*1081 FILLER_4_27
*1082 FILLER_4_271
*1083 FILLER_4_274
*1084 FILLER_4_277
*1085 FILLER_4_280
*1086 FILLER_4_283
*1087 FILLER_4_286
*1088 FILLER_4_289
*1089 FILLER_4_29
*1090 FILLER_4_292
*1091 FILLER_4_295
*1092 FILLER_4_298
*1093 FILLER_4_3
*1094 FILLER_4_301
*1095 FILLER_4_304
*1096 FILLER_4_307
*1097 FILLER_4_309
*1098 FILLER_4_312
*1099 FILLER_4_315
*1100 FILLER_4_318
*1101 FILLER_4_32
*1102 FILLER_4_321
*1103 FILLER_4_324
*1104 FILLER_4_327
*1105 FILLER_4_330
*1106 FILLER_4_333
*1107 FILLER_4_336
*1108 FILLER_4_339
*1109 FILLER_4_342
*1110 FILLER_4_345
*1111 FILLER_4_348
*1112 FILLER_4_35
*1113 FILLER_4_351
*1114 FILLER_4_354
*1115 FILLER_4_357
*1116 FILLER_4_360
*1117 FILLER_4_363
*1118 FILLER_4_365
*1119 FILLER_4_368
*1120 FILLER_4_371
*1121 FILLER_4_374
*1122 FILLER_4_377
*1123 FILLER_4_38
*1124 FILLER_4_380
*1125 FILLER_4_383
*1126 FILLER_4_386
*1127 FILLER_4_389
*1128 FILLER_4_392
*1129 FILLER_4_395
*1130 FILLER_4_398
*1131 FILLER_4_41
*1132 FILLER_4_44
*1133 FILLER_4_47
*1134 FILLER_4_50
*1135 FILLER_4_53
*1136 FILLER_4_56
*1137 FILLER_4_59
*1138 FILLER_4_6
*1139 FILLER_4_62
*1140 FILLER_4_65
*1141 FILLER_4_68
*1142 FILLER_4_71
*1143 FILLER_4_74
*1144 FILLER_4_77
*1145 FILLER_4_80
*1146 FILLER_4_83
*1147 FILLER_4_85
*1148 FILLER_4_88
*1149 FILLER_4_9
*1150 FILLER_4_91
*1151 FILLER_4_94
*1152 FILLER_4_97
*1153 FILLER_5_102
*1154 FILLER_5_105
*1155 FILLER_5_108
*1156 FILLER_5_111
*1157 FILLER_5_113
*1158 FILLER_5_116
*1159 FILLER_5_119
*1160 FILLER_5_12
*1161 FILLER_5_122
*1162 FILLER_5_125
*1163 FILLER_5_128
*1164 FILLER_5_131
*1165 FILLER_5_134
*1166 FILLER_5_137
*1167 FILLER_5_140
*1168 FILLER_5_143
*1169 FILLER_5_146
*1170 FILLER_5_149
*1171 FILLER_5_15
*1172 FILLER_5_152
*1173 FILLER_5_155
*1174 FILLER_5_158
*1175 FILLER_5_161
*1176 FILLER_5_164
*1177 FILLER_5_167
*1178 FILLER_5_169
*1179 FILLER_5_172
*1180 FILLER_5_175
*1181 FILLER_5_178
*1182 FILLER_5_18
*1183 FILLER_5_181
*1184 FILLER_5_184
*1185 FILLER_5_187
*1186 FILLER_5_190
*1187 FILLER_5_193
*1188 FILLER_5_196
*1189 FILLER_5_199
*1190 FILLER_5_205
*1191 FILLER_5_208
*1192 FILLER_5_21
*1193 FILLER_5_211
*1194 FILLER_5_214
*1195 FILLER_5_217
*1196 FILLER_5_220
*1197 FILLER_5_223
*1198 FILLER_5_225
*1199 FILLER_5_228
*1200 FILLER_5_231
*1201 FILLER_5_234
*1202 FILLER_5_237
*1203 FILLER_5_24
*1204 FILLER_5_240
*1205 FILLER_5_243
*1206 FILLER_5_246
*1207 FILLER_5_249
*1208 FILLER_5_252
*1209 FILLER_5_255
*1210 FILLER_5_258
*1211 FILLER_5_261
*1212 FILLER_5_264
*1213 FILLER_5_267
*1214 FILLER_5_27
*1215 FILLER_5_270
*1216 FILLER_5_273
*1217 FILLER_5_276
*1218 FILLER_5_279
*1219 FILLER_5_281
*1220 FILLER_5_284
*1221 FILLER_5_287
*1222 FILLER_5_290
*1223 FILLER_5_296
*1224 FILLER_5_299
*1225 FILLER_5_3
*1226 FILLER_5_30
*1227 FILLER_5_302
*1228 FILLER_5_305
*1229 FILLER_5_308
*1230 FILLER_5_311
*1231 FILLER_5_314
*1232 FILLER_5_317
*1233 FILLER_5_320
*1234 FILLER_5_323
*1235 FILLER_5_326
*1236 FILLER_5_329
*1237 FILLER_5_33
*1238 FILLER_5_332
*1239 FILLER_5_335
*1240 FILLER_5_337
*1241 FILLER_5_340
*1242 FILLER_5_343
*1243 FILLER_5_346
*1244 FILLER_5_349
*1245 FILLER_5_352
*1246 FILLER_5_355
*1247 FILLER_5_358
*1248 FILLER_5_36
*1249 FILLER_5_361
*1250 FILLER_5_364
*1251 FILLER_5_367
*1252 FILLER_5_370
*1253 FILLER_5_373
*1254 FILLER_5_376
*1255 FILLER_5_379
*1256 FILLER_5_382
*1257 FILLER_5_385
*1258 FILLER_5_388
*1259 FILLER_5_39
*1260 FILLER_5_391
*1261 FILLER_5_393
*1262 FILLER_5_396
*1263 FILLER_5_42
*1264 FILLER_5_45
*1265 FILLER_5_48
*1266 FILLER_5_51
*1267 FILLER_5_54
*1268 FILLER_5_57
*1269 FILLER_5_6
*1270 FILLER_5_60
*1271 FILLER_5_63
*1272 FILLER_5_66
*1273 FILLER_5_69
*1274 FILLER_5_72
*1275 FILLER_5_75
*1276 FILLER_5_78
*1277 FILLER_5_81
*1278 FILLER_5_84
*1279 FILLER_5_87
*1280 FILLER_5_9
*1281 FILLER_5_90
*1282 FILLER_5_93
*1283 FILLER_5_96
*1284 FILLER_5_99
*1285 FILLER_6_100
*1286 FILLER_6_103
*1287 FILLER_6_106
*1288 FILLER_6_109
*1289 FILLER_6_112
*1290 FILLER_6_115
*1291 FILLER_6_118
*1292 FILLER_6_12
*1293 FILLER_6_121
*1294 FILLER_6_124
*1295 FILLER_6_127
*1296 FILLER_6_130
*1297 FILLER_6_133
*1298 FILLER_6_136
*1299 FILLER_6_139
*1300 FILLER_6_141
*1301 FILLER_6_144
*1302 FILLER_6_147
*1303 FILLER_6_15
*1304 FILLER_6_150
*1305 FILLER_6_153
*1306 FILLER_6_156
*1307 FILLER_6_159
*1308 FILLER_6_162
*1309 FILLER_6_165
*1310 FILLER_6_168
*1311 FILLER_6_171
*1312 FILLER_6_174
*1313 FILLER_6_177
*1314 FILLER_6_18
*1315 FILLER_6_180
*1316 FILLER_6_183
*1317 FILLER_6_186
*1318 FILLER_6_189
*1319 FILLER_6_192
*1320 FILLER_6_195
*1321 FILLER_6_197
*1322 FILLER_6_200
*1323 FILLER_6_203
*1324 FILLER_6_206
*1325 FILLER_6_209
*1326 FILLER_6_21
*1327 FILLER_6_212
*1328 FILLER_6_215
*1329 FILLER_6_218
*1330 FILLER_6_221
*1331 FILLER_6_224
*1332 FILLER_6_227
*1333 FILLER_6_230
*1334 FILLER_6_233
*1335 FILLER_6_236
*1336 FILLER_6_239
*1337 FILLER_6_24
*1338 FILLER_6_242
*1339 FILLER_6_245
*1340 FILLER_6_248
*1341 FILLER_6_251
*1342 FILLER_6_253
*1343 FILLER_6_256
*1344 FILLER_6_259
*1345 FILLER_6_262
*1346 FILLER_6_265
*1347 FILLER_6_268
*1348 FILLER_6_27
*1349 FILLER_6_271
*1350 FILLER_6_274
*1351 FILLER_6_277
*1352 FILLER_6_280
*1353 FILLER_6_283
*1354 FILLER_6_286
*1355 FILLER_6_289
*1356 FILLER_6_29
*1357 FILLER_6_292
*1358 FILLER_6_297
*1359 FILLER_6_3
*1360 FILLER_6_300
*1361 FILLER_6_303
*1362 FILLER_6_306
*1363 FILLER_6_309
*1364 FILLER_6_312
*1365 FILLER_6_315
*1366 FILLER_6_318
*1367 FILLER_6_32
*1368 FILLER_6_321
*1369 FILLER_6_324
*1370 FILLER_6_330
*1371 FILLER_6_333
*1372 FILLER_6_336
*1373 FILLER_6_339
*1374 FILLER_6_342
*1375 FILLER_6_345
*1376 FILLER_6_35
*1377 FILLER_6_351
*1378 FILLER_6_354
*1379 FILLER_6_357
*1380 FILLER_6_360
*1381 FILLER_6_363
*1382 FILLER_6_368
*1383 FILLER_6_371
*1384 FILLER_6_374
*1385 FILLER_6_377
*1386 FILLER_6_38
*1387 FILLER_6_381
*1388 FILLER_6_384
*1389 FILLER_6_387
*1390 FILLER_6_395
*1391 FILLER_6_398
*1392 FILLER_6_41
*1393 FILLER_6_44
*1394 FILLER_6_47
*1395 FILLER_6_50
*1396 FILLER_6_53
*1397 FILLER_6_56
*1398 FILLER_6_59
*1399 FILLER_6_6
*1400 FILLER_6_62
*1401 FILLER_6_65
*1402 FILLER_6_68
*1403 FILLER_6_71
*1404 FILLER_6_74
*1405 FILLER_6_77
*1406 FILLER_6_80
*1407 FILLER_6_83
*1408 FILLER_6_85
*1409 FILLER_6_88
*1410 FILLER_6_9
*1411 FILLER_6_91
*1412 FILLER_6_94
*1413 FILLER_6_97
*1414 FILLER_7_102
*1415 FILLER_7_106
*1416 FILLER_7_109
*1417 FILLER_7_113
*1418 FILLER_7_116
*1419 FILLER_7_119
*1420 FILLER_7_12
*1421 FILLER_7_122
*1422 FILLER_7_125
*1423 FILLER_7_128
*1424 FILLER_7_134
*1425 FILLER_7_137
*1426 FILLER_7_140
*1427 FILLER_7_143
*1428 FILLER_7_146
*1429 FILLER_7_149
*1430 FILLER_7_15
*1431 FILLER_7_152
*1432 FILLER_7_155
*1433 FILLER_7_158
*1434 FILLER_7_161
*1435 FILLER_7_164
*1436 FILLER_7_167
*1437 FILLER_7_174
*1438 FILLER_7_177
*1439 FILLER_7_18
*1440 FILLER_7_180
*1441 FILLER_7_183
*1442 FILLER_7_186
*1443 FILLER_7_189
*1444 FILLER_7_192
*1445 FILLER_7_195
*1446 FILLER_7_198
*1447 FILLER_7_201
*1448 FILLER_7_204
*1449 FILLER_7_207
*1450 FILLER_7_21
*1451 FILLER_7_210
*1452 FILLER_7_213
*1453 FILLER_7_216
*1454 FILLER_7_219
*1455 FILLER_7_222
*1456 FILLER_7_225
*1457 FILLER_7_228
*1458 FILLER_7_233
*1459 FILLER_7_236
*1460 FILLER_7_239
*1461 FILLER_7_24
*1462 FILLER_7_242
*1463 FILLER_7_245
*1464 FILLER_7_248
*1465 FILLER_7_251
*1466 FILLER_7_254
*1467 FILLER_7_257
*1468 FILLER_7_260
*1469 FILLER_7_263
*1470 FILLER_7_266
*1471 FILLER_7_269
*1472 FILLER_7_27
*1473 FILLER_7_272
*1474 FILLER_7_275
*1475 FILLER_7_278
*1476 FILLER_7_281
*1477 FILLER_7_284
*1478 FILLER_7_287
*1479 FILLER_7_290
*1480 FILLER_7_293
*1481 FILLER_7_298
*1482 FILLER_7_3
*1483 FILLER_7_30
*1484 FILLER_7_301
*1485 FILLER_7_304
*1486 FILLER_7_309
*1487 FILLER_7_312
*1488 FILLER_7_315
*1489 FILLER_7_318
*1490 FILLER_7_321
*1491 FILLER_7_324
*1492 FILLER_7_327
*1493 FILLER_7_33
*1494 FILLER_7_330
*1495 FILLER_7_333
*1496 FILLER_7_337
*1497 FILLER_7_340
*1498 FILLER_7_343
*1499 FILLER_7_346
*1500 FILLER_7_349
*1501 FILLER_7_352
*1502 FILLER_7_355
*1503 FILLER_7_358
*1504 FILLER_7_36
*1505 FILLER_7_361
*1506 FILLER_7_364
*1507 FILLER_7_367
*1508 FILLER_7_370
*1509 FILLER_7_373
*1510 FILLER_7_376
*1511 FILLER_7_379
*1512 FILLER_7_382
*1513 FILLER_7_385
*1514 FILLER_7_388
*1515 FILLER_7_39
*1516 FILLER_7_391
*1517 FILLER_7_393
*1518 FILLER_7_396
*1519 FILLER_7_42
*1520 FILLER_7_45
*1521 FILLER_7_48
*1522 FILLER_7_51
*1523 FILLER_7_54
*1524 FILLER_7_57
*1525 FILLER_7_6
*1526 FILLER_7_60
*1527 FILLER_7_63
*1528 FILLER_7_66
*1529 FILLER_7_69
*1530 FILLER_7_72
*1531 FILLER_7_75
*1532 FILLER_7_79
*1533 FILLER_7_82
*1534 FILLER_7_85
*1535 FILLER_7_88
*1536 FILLER_7_9
*1537 FILLER_7_91
*1538 FILLER_7_94
*1539 FILLER_8_102
*1540 FILLER_8_105
*1541 FILLER_8_108
*1542 FILLER_8_111
*1543 FILLER_8_114
*1544 FILLER_8_117
*1545 FILLER_8_12
*1546 FILLER_8_120
*1547 FILLER_8_123
*1548 FILLER_8_126
*1549 FILLER_8_139
*1550 FILLER_8_147
*1551 FILLER_8_15
*1552 FILLER_8_150
*1553 FILLER_8_153
*1554 FILLER_8_156
*1555 FILLER_8_159
*1556 FILLER_8_162
*1557 FILLER_8_165
*1558 FILLER_8_168
*1559 FILLER_8_171
*1560 FILLER_8_174
*1561 FILLER_8_177
*1562 FILLER_8_18
*1563 FILLER_8_180
*1564 FILLER_8_186
*1565 FILLER_8_189
*1566 FILLER_8_192
*1567 FILLER_8_195
*1568 FILLER_8_197
*1569 FILLER_8_203
*1570 FILLER_8_206
*1571 FILLER_8_21
*1572 FILLER_8_212
*1573 FILLER_8_215
*1574 FILLER_8_221
*1575 FILLER_8_224
*1576 FILLER_8_227
*1577 FILLER_8_234
*1578 FILLER_8_24
*1579 FILLER_8_240
*1580 FILLER_8_243
*1581 FILLER_8_246
*1582 FILLER_8_249
*1583 FILLER_8_253
*1584 FILLER_8_256
*1585 FILLER_8_259
*1586 FILLER_8_262
*1587 FILLER_8_27
*1588 FILLER_8_276
*1589 FILLER_8_279
*1590 FILLER_8_289
*1591 FILLER_8_29
*1592 FILLER_8_297
*1593 FILLER_8_3
*1594 FILLER_8_301
*1595 FILLER_8_304
*1596 FILLER_8_307
*1597 FILLER_8_309
*1598 FILLER_8_312
*1599 FILLER_8_315
*1600 FILLER_8_318
*1601 FILLER_8_32
*1602 FILLER_8_321
*1603 FILLER_8_324
*1604 FILLER_8_327
*1605 FILLER_8_330
*1606 FILLER_8_333
*1607 FILLER_8_336
*1608 FILLER_8_339
*1609 FILLER_8_342
*1610 FILLER_8_345
*1611 FILLER_8_348
*1612 FILLER_8_35
*1613 FILLER_8_351
*1614 FILLER_8_354
*1615 FILLER_8_357
*1616 FILLER_8_360
*1617 FILLER_8_363
*1618 FILLER_8_365
*1619 FILLER_8_368
*1620 FILLER_8_371
*1621 FILLER_8_374
*1622 FILLER_8_377
*1623 FILLER_8_38
*1624 FILLER_8_380
*1625 FILLER_8_383
*1626 FILLER_8_386
*1627 FILLER_8_389
*1628 FILLER_8_392
*1629 FILLER_8_41
*1630 FILLER_8_44
*1631 FILLER_8_47
*1632 FILLER_8_50
*1633 FILLER_8_53
*1634 FILLER_8_59
*1635 FILLER_8_6
*1636 FILLER_8_62
*1637 FILLER_8_65
*1638 FILLER_8_76
*1639 FILLER_8_85
*1640 FILLER_8_9
*1641 FILLER_8_95
*1642 FILLER_9_101
*1643 FILLER_9_104
*1644 FILLER_9_107
*1645 FILLER_9_110
*1646 FILLER_9_113
*1647 FILLER_9_116
*1648 FILLER_9_119
*1649 FILLER_9_12
*1650 FILLER_9_122
*1651 FILLER_9_125
*1652 FILLER_9_133
*1653 FILLER_9_136
*1654 FILLER_9_148
*1655 FILLER_9_15
*1656 FILLER_9_153
*1657 FILLER_9_158
*1658 FILLER_9_162
*1659 FILLER_9_165
*1660 FILLER_9_169
*1661 FILLER_9_176
*1662 FILLER_9_179
*1663 FILLER_9_18
*1664 FILLER_9_182
*1665 FILLER_9_185
*1666 FILLER_9_188
*1667 FILLER_9_196
*1668 FILLER_9_199
*1669 FILLER_9_21
*1670 FILLER_9_218
*1671 FILLER_9_231
*1672 FILLER_9_24
*1673 FILLER_9_242
*1674 FILLER_9_245
*1675 FILLER_9_248
*1676 FILLER_9_254
*1677 FILLER_9_257
*1678 FILLER_9_260
*1679 FILLER_9_263